* SPICE NETLIST
***************************************

.SUBCKT crtmom PLUS MINUS BULK
.ENDS
***************************************
.SUBCKT cfmom PLUS MINUS BULK
.ENDS
***************************************
.SUBCKT cfmom_mx PLUS1 MINUS1 PLUS2 MINUS2 BULK
.ENDS
***************************************
.SUBCKT mimcap_1p0_sin TOP BOT
.ENDS
***************************************
.SUBCKT mimcap_1p0_sin_3t PLUS MINUS BULK
.ENDS
***************************************
.SUBCKT mimcap_2p0_sin TOP BOT
.ENDS
***************************************
.SUBCKT mimcap_2p0_sin_3t PLUS MINUS BULK
.ENDS
***************************************
.SUBCKT na20_g5a_cfp_mac D G S B
.ENDS
***************************************
.SUBCKT na20_g5a_nbl_cfp_mac D G S B SUB
.ENDS
***************************************
.SUBCKT na29_g5a_cfp_mac D G S B
.ENDS
***************************************
.SUBCKT na29_g5a_nbl_cfp_mac D G S B SUB
.ENDS
***************************************
.SUBCKT na6_g5a_nbl_v2_mac D G S B SUB
.ENDS
***************************************
.SUBCKT nch_hv5_5vnw_ac D G S B
.ENDS
***************************************
.SUBCKT nda29_g3a_nbl_cfp_mac D G S B SUB
.ENDS
***************************************
.SUBCKT nda45_g3b_nbl_cfp_mac D G BS SUB
.ENDS
***************************************
.SUBCKT ndio_sbd_mac PLUS MINUS
.ENDS
***************************************
.SUBCKT nld12_g5a_cfp_mac D G BS
.ENDS
***************************************
.SUBCKT nld12_g5a_iso_cfp_mac D G BS NBL_ISO SUB
.ENDS
***************************************
.SUBCKT nld16_g5a_cfp_mac D G BS
.ENDS
***************************************
.SUBCKT nld16_g5a_iso_cfp_mac D G BS NBL_ISO SUB
.ENDS
***************************************
.SUBCKT nld20_g5a_cfp_mac D G BS
.ENDS
***************************************
.SUBCKT nld20_g5a_iso_cfp_mac D G BS NBL_ISO SUB
.ENDS
***************************************
.SUBCKT nld24_g5a_cfp_mac D G BS
.ENDS
***************************************
.SUBCKT nld24_g5a_iso_cfp_mac D G BS NBL_ISO SUB
.ENDS
***************************************
.SUBCKT nld24_g5a_iso_switch_cfp_mac D G BS NBL_ISO SUB
.ENDS
***************************************
.SUBCKT nld24_g5a_switch_cfp_mac D G BS
.ENDS
***************************************
.SUBCKT nld36_g5b_nbl_cfp_mac D G BS SUB
.ENDS
***************************************
.SUBCKT nld45_g5b_nbl_cfp_mac D G BS SUB
.ENDS
***************************************
.SUBCKT nld5_g5a_iso_switch_mac D G BS NBL_ISO SUB
.ENDS
***************************************
.SUBCKT nld6_g5a_de_iso_v2_mac D G BS NBL_ISO SUB
.ENDS
***************************************
.SUBCKT nld6_g5a_de_mac D G BS
.ENDS
***************************************
.SUBCKT nld6_g5a_sa_iso_v2_mac D G BS NBL_ISO SUB
.ENDS
***************************************
.SUBCKT nld6_g5a_sa_mac D G BS
.ENDS
***************************************
.SUBCKT nld9_g5a_iso_mac D G BS NBL_ISO SUB
.ENDS
***************************************
.SUBCKT nld9_g5a_mac D G BS
.ENDS
***************************************
.SUBCKT nmoscap PLUS MINUS
.ENDS
***************************************
.SUBCKT nmoscap_5 PLUS MINUS
.ENDS
***************************************
.SUBCKT nmoscap_5_mis PLUS MINUS
.ENDS
***************************************
.SUBCKT npddshnnbl10_ga_bgr8_7t C1 C8 B1 B8 E1 E8 SUB
.ENDS
***************************************
.SUBCKT npddshnnbl10_ga_poly_4t C B E SUB
.ENDS
***************************************
.SUBCKT npddshnnbl2_ga_poly_4t C B E SUB
.ENDS
***************************************
.SUBCKT npddshnnbl5_ga_poly_4t C B E SUB
.ENDS
***************************************
.SUBCKT npwshnnbl10_ga_bgr8_7t C1 C8 B1 B8 E1 E8 SUB
.ENDS
***************************************
.SUBCKT npwshnnbl10_ga_poly_4t C B E SUB
.ENDS
***************************************
.SUBCKT npwshnnbl2_ga_poly_4t C B E SUB
.ENDS
***************************************
.SUBCKT npwshnnbl5_ga_poly_4t C B E SUB
.ENDS
***************************************
.SUBCKT pa12_g5a_nbl_slit_v2_mac D G BS SUB
.ENDS
***************************************
.SUBCKT pa12_g5a_nbl_v2_mac D G S B SUB
.ENDS
***************************************
.SUBCKT pa16_g5a_nbl_cfp_mac D G S B SUB
.ENDS
***************************************
.SUBCKT pa16_g5a_nbl_slit_cfp_mac D G BS SUB
.ENDS
***************************************
.SUBCKT pa20_g5a_nbl_cfp_mac D G S B SUB
.ENDS
***************************************
.SUBCKT pa20_g5a_nbl_slit_cfp_mac D G BS SUB
.ENDS
***************************************
.SUBCKT pa29_g5a_nbl_cfp_mac D G S B SUB
.ENDS
***************************************
.SUBCKT pa36_g5b_nbl_cfp_mac D G S B SUB
.ENDS
***************************************
.SUBCKT pa45_g5b_nbl_cfp_mac D G S B SUB
.ENDS
***************************************
.SUBCKT pa6_g5a_de_nbl_v2_mac D G S B SUB
.ENDS
***************************************
.SUBCKT pa6_g5a_sa_nbl_v2_mac D G S B SUB
.ENDS
***************************************
.SUBCKT pa9_g5a_nbl_mac D G S B SUB
.ENDS
***************************************
.SUBCKT pa9_g5a_nbl_slit_mac D G BS SUB
.ENDS
***************************************
.SUBCKT pbhvnwshnnbl_esd_dio_shp_gb_3t PLUS MINUS SUB
.ENDS
***************************************
.SUBCKT pbshnnbl_dio_shp_ga_3t PLUS MINUS SUB
.ENDS
***************************************
.SUBCKT pch5_as_switch_mac D G BS SUB
.ENDS
***************************************
.SUBCKT pddshnnbl_dio_shp_ga_3t PLUS MINUS SUB
.ENDS
***************************************
.SUBCKT pdio_esd_ga_12_pdd_3t PLUS MINUS SUB
.ENDS
***************************************
.SUBCKT pdio_esd_ga_12_v4_3t PLUS MINUS SUB
.ENDS
***************************************
.SUBCKT pdio_esd_ga_16_v3_3t PLUS MINUS SUB
.ENDS
***************************************
.SUBCKT pdio_esd_ga_20_pdd_3t PLUS MINUS SUB
.ENDS
***************************************
.SUBCKT pdio_esd_ga_20_v3_3t PLUS MINUS SUB
.ENDS
***************************************
.SUBCKT pdio_esd_ga_24_v3_3t PLUS MINUS SUB
.ENDS
***************************************
.SUBCKT pdio_esd_ga_29_v3_3t PLUS MINUS SUB
.ENDS
***************************************
.SUBCKT pdio_esd_ga_6_v3_3t PLUS MINUS SUB
.ENDS
***************************************
.SUBCKT pdio_esd_ga_9_v3_3t PLUS MINUS SUB
.ENDS
***************************************
.SUBCKT pdio_esd_gb_36_3t PLUS MINUS SUB
.ENDS
***************************************
.SUBCKT pdio_esd_gb_45_cit_v3_3t PLUS MINUS SUB
.ENDS
***************************************
.SUBCKT phvnwpsub10_gb_poly C B E
.ENDS
***************************************
.SUBCKT phvnwpsub2_gb_poly C B E
.ENDS
***************************************
.SUBCKT phvnwpsub5_gb_poly C B E
.ENDS
***************************************
.SUBCKT pnddpsub10_ga_poly C B E
.ENDS
***************************************
.SUBCKT pnddpsub2_ga_poly C B E
.ENDS
***************************************
.SUBCKT pnddpsub5_ga_poly C B E
.ENDS
***************************************
.SUBCKT pnddshp5_nbl_ga_4t C B E SUB
.ENDS
***************************************
.SUBCKT rnod_m PLUS MINUS B
.ENDS
***************************************
.SUBCKT rnodrpo_m PLUS MINUS B
.ENDS
***************************************
.SUBCKT rnodrpo_pure5v PLUS MINUS
.ENDS
***************************************
.SUBCKT rnodrpo_pure5v_m PLUS MINUS B
.ENDS
***************************************
.SUBCKT rnodw_m PLUS MINUS B
.ENDS
***************************************
.SUBCKT rnpo1_dis PLUS MINUS B
.ENDS
***************************************
.SUBCKT rnpo1rpo_dis PLUS MINUS B
.ENDS
***************************************
.SUBCKT rnpo1rpo_pure5v PLUS MINUS
.ENDS
***************************************
.SUBCKT rnpo1rpo_pure5v_dis PLUS MINUS B
.ENDS
***************************************
.SUBCKT rnpo1w_dis PLUS MINUS B
.ENDS
***************************************
.SUBCKT rnwod_m PLUS MINUS B
.ENDS
***************************************
.SUBCKT rnwod_pure5v PLUS MINUS
.ENDS
***************************************
.SUBCKT rnwod_pure5v_m PLUS MINUS B
.ENDS
***************************************
.SUBCKT rnwsti_m PLUS MINUS B
.ENDS
***************************************
.SUBCKT rnwsti_pure5v PLUS MINUS
.ENDS
***************************************
.SUBCKT rnwsti_pure5v_m PLUS MINUS B
.ENDS
***************************************
.SUBCKT rpod_m PLUS MINUS B
.ENDS
***************************************
.SUBCKT rpodrpo_m PLUS MINUS B
.ENDS
***************************************
.SUBCKT rpodrpo_pure5v PLUS MINUS
.ENDS
***************************************
.SUBCKT rpodrpo_pure5v_m PLUS MINUS B
.ENDS
***************************************
.SUBCKT rpodw_m PLUS MINUS B
.ENDS
***************************************
.SUBCKT rppo1_dis PLUS MINUS B
.ENDS
***************************************
.SUBCKT rppo1rpo_dis PLUS MINUS B
.ENDS
***************************************
.SUBCKT rppo1rpo_pure5v PLUS MINUS
.ENDS
***************************************
.SUBCKT rppo1rpo_pure5v_dis PLUS MINUS B
.ENDS
***************************************
.SUBCKT rppo1rpo_serp PLUS MINUS
.ENDS
***************************************
.SUBCKT rppo1rpo_serp_dis PLUS MINUS B
.ENDS
***************************************
.SUBCKT rppo1w_dis PLUS MINUS B
.ENDS
***************************************
.SUBCKT rppolyhri1k PLUS MINUS
.ENDS
***************************************
.SUBCKT rppolyhri1k_dis PLUS MINUS BULK
.ENDS
***************************************
.SUBCKT rppolyhri3d3k PLUS MINUS
.ENDS
***************************************
.SUBCKT rppolyhri3d3k_dis PLUS MINUS BULK
.ENDS
***************************************
.SUBCKT rppolyhri3d3k_serp PLUS MINUS
.ENDS
***************************************
.SUBCKT rppolyhri3d3k_serp_dis PLUS MINUS BULK
.ENDS
***************************************
.SUBCKT sbd_dio_ga_12_v2_3t PLUS MINUS SUB
.ENDS
***************************************
.SUBCKT sbd_dio_ga_16_v2_3t PLUS MINUS SUB
.ENDS
***************************************
.SUBCKT sbd_dio_ga_24_v2_3t PLUS MINUS SUB
.ENDS
***************************************
.SUBCKT shpnblshn_dio_shp_gb_3t PLUS MINUS SUB
.ENDS
***************************************
.SUBCKT shpshnnbl_esd_dio_shp_ga_3t PLUS MINUS SUB
.ENDS
***************************************
.SUBCKT zd_dio_ga_nbl_v2_4t PLUS MINUS NBL_ISO SUB
.ENDS
***************************************
.SUBCKT tsmc_c018_sealring_corner_1p5m
** N=1 EP=0 IP=0 FDC=0
.ENDS
***************************************
.SUBCKT tsmc_c018_seal_ring_edge_1p5m
** N=1 EP=0 IP=0 FDC=0
.ENDS
***************************************
.SUBCKT ICV_28
** N=1 EP=0 IP=2 FDC=0
.ENDS
***************************************
.SUBCKT ICV_29
** N=1 EP=0 IP=2 FDC=0
.ENDS
***************************************
.SUBCKT ICV_30
** N=1 EP=0 IP=2 FDC=0
.ENDS
***************************************
.SUBCKT ICV_31
** N=1 EP=0 IP=2 FDC=0
.ENDS
***************************************
.SUBCKT ICV_32
** N=1 EP=0 IP=2 FDC=0
.ENDS
***************************************
.SUBCKT HBK183_CORNER_VIA
** N=6 EP=0 IP=0 FDC=0
*.SEEDPROM
.ENDS
***************************************
.SUBCKT PCORNER
** N=7 EP=0 IP=12 FDC=0
*.SEEDPROM
.ENDS
***************************************
.SUBCKT HBK183_PAD_LINE_S
** N=8 EP=0 IP=0 FDC=0
.ENDS
***************************************
.SUBCKT HBK183_NMOS_W26_L075_S
** N=5 EP=0 IP=0 FDC=0
.ENDS
***************************************
.SUBCKT ICV_2
** N=6 EP=0 IP=10 FDC=0
.ENDS
***************************************
.SUBCKT ICV_4
** N=5 EP=0 IP=12 FDC=0
.ENDS
***************************************
.SUBCKT HBK183_PMOS_W21_L075_S
** N=5 EP=0 IP=0 FDC=0
.ENDS
***************************************
.SUBCKT ICV_1
** N=5 EP=0 IP=10 FDC=0
.ENDS
***************************************
.SUBCKT ICV_3
** N=6 EP=0 IP=10 FDC=0
.ENDS
***************************************
.SUBCKT HBK183_POSTGR_RES
** N=3 EP=0 IP=0 FDC=0
.ENDS
***************************************
.SUBCKT HBK183_POSTDRV_PDUW0208SCDG_S 1 2 3 4 5 6 7 8
** N=10 EP=8 IP=57 FDC=48
*.SEEDPROM
M0 7 3 2 8 ND L=7.5e-07 W=2.6e-05 $X=5520 $Y=5590 $D=1
M1 2 9 7 8 ND L=7.5e-07 W=2.6e-05 $X=9930 $Y=5590 $D=1
M2 7 9 2 8 ND L=7.5e-07 W=2.6e-05 $X=11900 $Y=5590 $D=1
M3 2 9 7 8 ND L=7.5e-07 W=2.6e-05 $X=16310 $Y=5590 $D=1
M4 7 9 2 8 ND L=7.5e-07 W=2.6e-05 $X=18280 $Y=5590 $D=1
M5 2 9 7 8 ND L=7.5e-07 W=2.6e-05 $X=22690 $Y=5590 $D=1
M6 7 9 2 8 ND L=7.5e-07 W=2.6e-05 $X=24660 $Y=5590 $D=1
M7 2 9 7 8 ND L=7.5e-07 W=2.6e-05 $X=29070 $Y=5590 $D=1
M8 7 9 2 8 ND L=7.5e-07 W=2.6e-05 $X=31040 $Y=5590 $D=1
M9 2 9 7 8 ND L=7.5e-07 W=2.6e-05 $X=35450 $Y=5590 $D=1
M10 7 9 2 8 ND L=7.5e-07 W=2.6e-05 $X=37420 $Y=5590 $D=1
M11 2 9 7 8 ND L=7.5e-07 W=2.6e-05 $X=41830 $Y=5590 $D=1
M12 7 9 2 8 ND L=7.5e-07 W=2.6e-05 $X=43800 $Y=5590 $D=1
M13 2 9 7 8 ND L=7.5e-07 W=2.6e-05 $X=48210 $Y=5590 $D=1
M14 7 9 2 8 ND L=7.5e-07 W=2.6e-05 $X=50180 $Y=5590 $D=1
M15 2 9 7 8 ND L=7.5e-07 W=2.6e-05 $X=54590 $Y=5590 $D=1
M16 7 9 2 8 ND L=7.5e-07 W=2.6e-05 $X=56560 $Y=5590 $D=1
M17 2 9 7 8 ND L=7.5e-07 W=2.6e-05 $X=60970 $Y=5590 $D=1
M18 7 9 2 8 ND L=7.5e-07 W=2.6e-05 $X=62940 $Y=5590 $D=1
M19 2 6 7 8 ND L=7.5e-07 W=2.6e-05 $X=67350 $Y=5590 $D=1
M20 7 6 2 8 ND L=7.5e-07 W=2.6e-05 $X=69320 $Y=5590 $D=1
M21 2 6 7 8 ND L=7.5e-07 W=2.6e-05 $X=73730 $Y=5590 $D=1
M22 7 4 1 1 PD L=7.5e-07 W=2.1e-05 $X=5520 $Y=52340 $D=17
M23 1 4 7 1 PD L=7.5e-07 W=2.1e-05 $X=9930 $Y=52340 $D=17
M24 7 4 1 1 PD L=7.5e-07 W=2.1e-05 $X=11900 $Y=52340 $D=17
M25 1 4 7 1 PD L=7.5e-07 W=2.1e-05 $X=16310 $Y=52340 $D=17
M26 7 10 1 1 PD L=7.5e-07 W=2.1e-05 $X=18280 $Y=52340 $D=17
M27 1 10 7 1 PD L=7.5e-07 W=2.1e-05 $X=22690 $Y=52340 $D=17
M28 7 10 1 1 PD L=7.5e-07 W=2.1e-05 $X=24660 $Y=52340 $D=17
M29 1 10 7 1 PD L=7.5e-07 W=2.1e-05 $X=29070 $Y=52340 $D=17
M30 7 10 1 1 PD L=7.5e-07 W=2.1e-05 $X=31040 $Y=52340 $D=17
M31 1 10 7 1 PD L=7.5e-07 W=2.1e-05 $X=35450 $Y=52340 $D=17
M32 7 10 1 1 PD L=7.5e-07 W=2.1e-05 $X=37420 $Y=52340 $D=17
M33 1 5 7 1 PD L=7.5e-07 W=2.1e-05 $X=41830 $Y=52340 $D=17
M34 7 5 1 1 PD L=7.5e-07 W=2.1e-05 $X=43800 $Y=52340 $D=17
M35 1 5 7 1 PD L=7.5e-07 W=2.1e-05 $X=48210 $Y=52340 $D=17
M36 7 5 1 1 PD L=7.5e-07 W=2.1e-05 $X=50180 $Y=52340 $D=17
M37 1 5 7 1 PD L=7.5e-07 W=2.1e-05 $X=54590 $Y=52340 $D=17
M38 7 5 1 1 PD L=7.5e-07 W=2.1e-05 $X=56560 $Y=52340 $D=17
M39 1 5 7 1 PD L=7.5e-07 W=2.1e-05 $X=60970 $Y=52340 $D=17
M40 7 5 1 1 PD L=7.5e-07 W=2.1e-05 $X=62940 $Y=52340 $D=17
M41 1 5 7 1 PD L=7.5e-07 W=2.1e-05 $X=67350 $Y=52340 $D=17
M42 7 5 1 1 PD L=7.5e-07 W=2.1e-05 $X=69320 $Y=52340 $D=17
M43 1 5 7 1 PD L=7.5e-07 W=2.1e-05 $X=73730 $Y=52340 $D=17
R44 10 1 526.2 $[PR] $X=34295 $Y=44870 $D=52
R45 2 9 526.2 $[PR] $X=49830 $Y=38370 $D=52
D46 8 1 pnwdio_5_iso AREA=2.10858e-09 pj=0.00020828 $X=1690 $Y=49040 $D=112
D47 8 1 pnwdio_iso AREA=2.0976e-11 pj=1.951e-05 $X=47830 $Y=37690 $D=114
.ENDS
***************************************
.SUBCKT HBK183_COMM_N_1
** N=2 EP=0 IP=0 FDC=0
.ENDS
***************************************
.SUBCKT ICV_5
** N=2 EP=0 IP=4 FDC=0
.ENDS
***************************************
.SUBCKT ICV_6
** N=2 EP=0 IP=4 FDC=0
.ENDS
***************************************
.SUBCKT HBK183_NMOS_W2_L06 1 2 3 4
** N=4 EP=4 IP=0 FDC=1
M0 3 2 1 4 ND L=6e-07 W=2e-06 $X=790 $Y=0 $D=1
.ENDS
***************************************
.SUBCKT HBK183_PMOS_W2_L06_1
** N=4 EP=0 IP=0 FDC=0
.ENDS
***************************************
.SUBCKT HBK183_NMOS_W7_L06 1 2 3 4
** N=4 EP=4 IP=0 FDC=1
M0 3 2 1 4 ND L=6e-07 W=7e-06 $X=790 $Y=0 $D=1
.ENDS
***************************************
.SUBCKT HBK183_NMOS_W1_L027 1 2 3 4
** N=4 EP=4 IP=0 FDC=1
M0 3 2 1 4 N L=2.7e-07 W=1e-06 $X=960 $Y=0 $D=0
.ENDS
***************************************
.SUBCKT HBK183_PMOS_W25_L027
** N=4 EP=0 IP=0 FDC=0
.ENDS
***************************************
.SUBCKT HBK183_PMOS_W4_L06
** N=4 EP=0 IP=0 FDC=0
.ENDS
***************************************
.SUBCKT ICV_7
** N=2 EP=0 IP=4 FDC=0
.ENDS
***************************************
.SUBCKT HBK183_PMOS_W5_L06
** N=4 EP=0 IP=0 FDC=0
.ENDS
***************************************
.SUBCKT HBK183_NMOS_W75_L06 1 2 3 4
** N=4 EP=4 IP=0 FDC=1
M0 3 2 1 4 ND L=6e-07 W=7.5e-06 $X=790 $Y=0 $D=1
.ENDS
***************************************
.SUBCKT HBK183_NMOS_W1_L06 1 2 3 4
** N=4 EP=4 IP=0 FDC=1
M0 3 2 1 4 ND L=6e-07 W=1e-06 $X=720 $Y=0 $D=1
.ENDS
***************************************
.SUBCKT HBK183_PMOS_W75_L06
** N=4 EP=0 IP=0 FDC=0
.ENDS
***************************************
.SUBCKT HBK183_NMOS_W5_L06 1 2 3 4
** N=4 EP=4 IP=0 FDC=1
M0 3 2 1 4 ND L=6e-07 W=5e-06 $X=790 $Y=0 $D=1
.ENDS
***************************************
.SUBCKT HBK183_PMOS_W3_L06_1
** N=4 EP=0 IP=0 FDC=0
.ENDS
***************************************
.SUBCKT HBK183_NMOS_W6_L06 1 2 3 4
** N=4 EP=4 IP=0 FDC=1
M0 3 2 1 4 ND L=6e-07 W=6e-06 $X=790 $Y=0 $D=1
.ENDS
***************************************
.SUBCKT HBK183_PMOS_W2_L06
** N=4 EP=0 IP=0 FDC=0
.ENDS
***************************************
.SUBCKT HBK183_POC_MOS 1 2 3
** N=3 EP=3 IP=4 FDC=1
X0 1 1 2 3 HBK183_NMOS_W2_L06 $T=0 730 0 0 $X=-450 $Y=-30
.ENDS
***************************************
.SUBCKT HBK183_PMOS_W5_L05
** N=4 EP=0 IP=0 FDC=0
.ENDS
***************************************
.SUBCKT HBK183_NMOS_W5_L056_1 1 2 3 4
** N=4 EP=4 IP=0 FDC=1
M0 2 3 1 4 ND L=6e-07 W=5e-06 $X=790 $Y=0 $D=1
.ENDS
***************************************
.SUBCKT HBK183_PREDRV 1 2 3 4 5 6 7 8 9 10 11 12 13 14 15 16 17 18 19 20
** N=43 EP=20 IP=329 FDC=84
*.SEEDPROM
M0 3 40 13 20 N L=2.7e-07 W=2e-06 $X=57065 $Y=24440 $D=0
M1 5 25 3 20 ND L=6e-07 W=5e-06 $X=12720 $Y=17440 $D=1
M2 14 3 3 20 ND L=6e-07 W=2e-06 $X=60170 $Y=24440 $D=1
M3 40 39 3 20 ND L=6e-07 W=2e-06 $X=63250 $Y=24440 $D=1
M4 3 15 39 20 ND L=6e-07 W=5.5e-06 $X=64050 $Y=17440 $D=1
M5 2 4 23 2 P L=2.7e-07 W=2.5e-06 $X=5510 $Y=31240 $D=16
M6 31 7 2 2 P L=2.7e-07 W=2.5e-06 $X=26600 $Y=31240 $D=16
M7 2 10 36 2 P L=2.7e-07 W=2.5e-06 $X=40480 $Y=31240 $D=16
M8 38 11 2 2 P L=2.7e-07 W=2.5e-06 $X=44640 $Y=31240 $D=16
M9 13 40 2 2 P L=2.7e-07 W=2.5e-06 $X=55455 $Y=31240 $D=16
M10 2 40 13 2 P L=2.7e-07 W=2.5e-06 $X=57065 $Y=31240 $D=16
M11 41 16 2 2 P L=2.7e-07 W=2.5e-06 $X=67590 $Y=31240 $D=16
M12 22 21 1 1 PD L=6e-07 W=1e-06 $X=2080 $Y=8100 $D=17
M13 1 24 21 1 PD L=6e-07 W=2e-06 $X=4540 $Y=7100 $D=17
M14 24 21 1 1 PD L=6e-07 W=2e-06 $X=6140 $Y=7100 $D=17
M15 27 24 1 1 PD L=6e-07 W=4e-06 $X=6940 $Y=1600 $D=17
M16 25 26 1 1 PD L=6e-07 W=5e-06 $X=9520 $Y=4100 $D=17
M17 1 22 25 1 PD L=6e-07 W=5e-06 $X=11120 $Y=4100 $D=17
M18 5 25 1 1 PD L=6e-07 W=5e-06 $X=12720 $Y=4100 $D=17
M19 6 28 1 1 PD L=6e-07 W=7.5e-06 $X=15680 $Y=1600 $D=17
M20 1 28 6 1 PD L=6e-07 W=7.5e-06 $X=17280 $Y=1600 $D=17
M21 43 27 1 1 PD L=6e-07 W=3e-06 $X=18880 $Y=6100 $D=17
M22 28 33 43 1 PD L=6e-07 W=3e-06 $X=20480 $Y=6100 $D=17
M23 1 29 26 1 PD L=6e-07 W=5e-06 $X=23060 $Y=1600 $D=17
M24 29 30 1 1 PD L=6e-07 W=4e-06 $X=24660 $Y=1600 $D=17
M25 1 32 30 1 PD L=6e-07 W=2e-06 $X=25640 $Y=7100 $D=17
M26 32 30 1 1 PD L=6e-07 W=2e-06 $X=27240 $Y=7100 $D=17
M27 33 32 1 1 PD L=6e-07 W=4e-06 $X=29580 $Y=1600 $D=17
M28 8 34 6 1 PD L=6e-07 W=7.5e-06 $X=32590 $Y=1600 $D=17
M29 1 35 8 1 PD L=6e-07 W=5e-06 $X=34190 $Y=1600 $D=17
M30 5 34 9 1 PD L=6e-07 W=5e-06 $X=36770 $Y=4100 $D=17
M31 1 34 35 1 PD L=6e-07 W=2e-06 $X=39510 $Y=6390 $D=17
M32 34 35 1 1 PD L=6e-07 W=2e-06 $X=41110 $Y=6390 $D=17
M33 1 12 37 1 PD L=6e-07 W=2e-06 $X=43680 $Y=6390 $D=17
M34 12 37 1 1 PD L=6e-07 W=2e-06 $X=45280 $Y=6390 $D=17
M35 40 39 2 2 PD L=6e-07 W=2e-06 $X=60050 $Y=31240 $D=17
M36 2 39 40 2 PD L=6e-07 W=2e-06 $X=61650 $Y=31240 $D=17
M37 40 39 2 2 PD L=6e-07 W=2e-06 $X=63250 $Y=31240 $D=17
M38 1 15 39 1 PD L=6e-07 W=2e-06 $X=64050 $Y=1600 $D=17
M39 1 14 17 1 PD L=6e-07 W=2e-06 $X=66630 $Y=2370 $D=17
M40 14 17 1 1 PD L=6e-07 W=2e-06 $X=68230 $Y=2370 $D=17
M41 18 1 1 1 PD L=5e-07 W=5e-06 $X=71480 $Y=1600 $D=17
M42 1 1 18 1 PD L=5e-07 W=5e-06 $X=73080 $Y=1600 $D=17
M43 18 1 1 1 PD L=5e-07 W=5e-06 $X=74680 $Y=1600 $D=17
M44 1 1 18 1 PD L=5e-07 W=5e-06 $X=76280 $Y=1600 $D=17
R45 18 19 554.264 $[PR] $X=73740 $Y=31490 $D=52
D46 20 2 pnwdio_5_iso AREA=3.44535e-11 pj=2.368e-05 $X=58810 $Y=29040 $D=112
X56 22 21 3 20 HBK183_NMOS_W2_L06 $T=3470 17440 1 180 $X=840 $Y=16680
X57 29 30 3 20 HBK183_NMOS_W2_L06 $T=22270 24440 0 0 $X=21820 $Y=23680
X60 21 23 3 20 HBK183_NMOS_W7_L06 $T=3750 17440 0 0 $X=3300 $Y=16680
X61 3 4 24 20 HBK183_NMOS_W7_L06 $T=5350 17440 0 0 $X=4900 $Y=16680
X62 3 7 30 20 HBK183_NMOS_W7_L06 $T=27030 17440 1 180 $X=24400 $Y=16680
X63 32 31 3 20 HBK183_NMOS_W7_L06 $T=28630 17440 1 180 $X=26000 $Y=16680
X64 35 36 3 20 HBK183_NMOS_W7_L06 $T=38720 17440 0 0 $X=38270 $Y=16680
X65 3 10 34 20 HBK183_NMOS_W7_L06 $T=40320 17440 0 0 $X=39870 $Y=16680
X66 3 11 37 20 HBK183_NMOS_W7_L06 $T=45070 17440 1 180 $X=42440 $Y=16680
X67 12 38 3 20 HBK183_NMOS_W7_L06 $T=46670 17440 1 180 $X=44040 $Y=16680
X68 3 16 17 20 HBK183_NMOS_W7_L06 $T=68020 17440 1 180 $X=65390 $Y=16680
X69 14 41 3 20 HBK183_NMOS_W7_L06 $T=69620 17440 1 180 $X=66990 $Y=16680
X70 3 4 23 20 HBK183_NMOS_W1_L027 $T=6740 26440 0 180 $X=4290 $Y=24680
X71 3 7 31 20 HBK183_NMOS_W1_L027 $T=25640 26440 1 0 $X=25380 $Y=24680
X72 3 10 36 20 HBK183_NMOS_W1_L027 $T=41710 26440 0 180 $X=39260 $Y=24680
X73 3 11 38 20 HBK183_NMOS_W1_L027 $T=43680 26440 1 0 $X=43420 $Y=24680
X74 3 16 41 20 HBK183_NMOS_W1_L027 $T=66630 26440 1 0 $X=66370 $Y=24680
X97 42 26 25 20 HBK183_NMOS_W75_L06 $T=10910 17440 1 180 $X=8280 $Y=16680
X98 3 22 42 20 HBK183_NMOS_W75_L06 $T=12510 17440 1 180 $X=9880 $Y=16680
X99 3 24 27 20 HBK183_NMOS_W1_L06 $T=11940 25440 0 0 $X=11490 $Y=24720
X100 27 24 3 20 HBK183_NMOS_W1_L06 $T=13400 25440 0 0 $X=12950 $Y=24720
X101 33 32 3 20 HBK183_NMOS_W1_L06 $T=30970 17440 1 180 $X=28480 $Y=16720
X105 3 28 6 20 HBK183_NMOS_W5_L06 $T=14890 17440 0 0 $X=14440 $Y=16680
X106 6 28 3 20 HBK183_NMOS_W5_L06 $T=16490 17440 0 0 $X=16040 $Y=16680
X107 26 29 3 20 HBK183_NMOS_W5_L06 $T=22270 17440 0 0 $X=21820 $Y=16680
X108 6 35 8 20 HBK183_NMOS_W5_L06 $T=31800 17440 0 0 $X=31350 $Y=16680
X109 5 35 9 20 HBK183_NMOS_W5_L06 $T=34380 17440 0 0 $X=33930 $Y=16680
X110 9 34 3 20 HBK183_NMOS_W5_L06 $T=35980 17440 0 0 $X=35530 $Y=16680
X113 3 27 28 20 HBK183_NMOS_W6_L06 $T=18090 17440 0 0 $X=17640 $Y=16680
X114 3 33 28 20 HBK183_NMOS_W6_L06 $T=21870 17440 1 180 $X=19240 $Y=16680
X127 3 24 20 HBK183_POC_MOS $T=31110 23710 1 180 $X=28480 $Y=23680
X128 3 35 20 HBK183_POC_MOS $T=35980 23710 0 0 $X=35530 $Y=23680
X129 3 12 20 HBK183_POC_MOS $T=51540 23710 1 180 $X=48910 $Y=23680
X134 3 18 3 20 HBK183_NMOS_W5_L056_1 $T=70640 21440 0 0 $X=70190 $Y=20680
X135 18 3 3 20 HBK183_NMOS_W5_L056_1 $T=72240 21440 0 0 $X=71790 $Y=20680
X136 3 18 3 20 HBK183_NMOS_W5_L056_1 $T=73840 21440 0 0 $X=73390 $Y=20680
X137 18 3 3 20 HBK183_NMOS_W5_L056_1 $T=75440 21440 0 0 $X=74990 $Y=20680
.ENDS
***************************************
.SUBCKT HBK183_M3456
** N=6 EP=0 IP=0 FDC=0
.ENDS
***************************************
.SUBCKT PAD70LU_TRL
** N=1 EP=0 IP=0 FDC=0
.ENDS
***************************************
.SUBCKT HBK183_PMOS_W45_L06
** N=4 EP=0 IP=0 FDC=0
.ENDS
***************************************
.SUBCKT HBK183_PMOS_W15_L06_1
** N=4 EP=0 IP=0 FDC=0
.ENDS
***************************************
.SUBCKT HBK183_NMOS_W3_L06 1 2 3 4
** N=4 EP=4 IP=0 FDC=1
M0 3 2 1 4 ND L=6e-07 W=3e-06 $X=790 $Y=0 $D=1
.ENDS
***************************************
.SUBCKT HBK183_SCH_CELL 1 2 3 4 5
** N=8 EP=5 IP=48 FDC=5
X0 7 4 3 1 HBK183_NMOS_W2_L06 $T=10580 17910 0 0 $X=10130 $Y=17150
X8 1 2 6 1 HBK183_NMOS_W3_L06 $T=3490 16910 1 180 $X=860 $Y=16150
X9 6 2 1 1 HBK183_NMOS_W3_L06 $T=5090 16910 1 180 $X=2460 $Y=16150
X10 7 5 6 1 HBK183_NMOS_W3_L06 $T=6690 16910 1 180 $X=4060 $Y=16150
X11 4 5 7 1 HBK183_NMOS_W3_L06 $T=8290 16910 1 180 $X=5660 $Y=16150
.ENDS
***************************************
.SUBCKT HBK183_PUCELL_N 1 2 3 4
** N=4 EP=4 IP=0 FDC=1
M0 3 1 2 4 ND L=6.6e-06 W=6e-07 $X=1450 $Y=5060 $D=1
.ENDS
***************************************
.SUBCKT PFILLER0005
** N=6 EP=0 IP=0 FDC=0
*.SEEDPROM
.ENDS
***************************************
.SUBCKT ICV_71
** N=4 EP=0 IP=12 FDC=0
*.SEEDPROM
.ENDS
***************************************
.SUBCKT PDDW0208CDG VDDPST VDD VSS VSSPST PAD OEN I DS IE C PE 13
** N=25 EP=12 IP=86 FDC=145
*.SEEDPROM
M0 VDDPST 17 18 VDDPST PD L=6e-07 W=4.5e-06 $X=50150 $Y=82610 $D=17
M1 15 14 VDDPST VDDPST PD L=6e-07 W=1.5e-06 $X=50150 $Y=88610 $D=17
M2 18 17 VDDPST VDDPST PD L=6e-07 W=4.5e-06 $X=51750 $Y=82610 $D=17
M3 VDDPST 14 15 VDDPST PD L=6e-07 W=1.5e-06 $X=51750 $Y=88610 $D=17
M4 15 17 18 VDDPST PD L=6e-07 W=4.5e-06 $X=53350 $Y=82610 $D=17
M5 18 17 15 VDDPST PD L=6e-07 W=4.5e-06 $X=54950 $Y=82610 $D=17
M6 VDDPST VDDPST VDDPST VDDPST PD L=6e-07 W=5e-06 $X=59420 $Y=82610 $D=17
X7 VDDPST VSSPST 19 20 21 22 PAD 13 HBK183_POSTDRV_PDUW0208SCDG_S $T=0 0 0 0 $X=-600 $Y=0
X8 VSS VSS VSS 13 HBK183_NMOS_W2_L06 $T=58630 99500 0 0 $X=58180 $Y=98740
X10 VDDPST VDD VSS OEN 19 20 I 21 22 DS IE 14 C 24 15 PE 23 17 PAD 13 HBK183_PREDRV $T=0 81010 0 0 $X=-600 $Y=80290
X18 VSS 14 16 13 HBK183_NMOS_W3_L06 $T=51540 98500 1 180 $X=48910 $Y=97740
X19 16 14 VSS 13 HBK183_NMOS_W3_L06 $T=53140 98500 1 180 $X=50510 $Y=97740
X20 25 17 16 13 HBK183_NMOS_W3_L06 $T=54740 98500 1 180 $X=52110 $Y=97740
X21 15 17 25 13 HBK183_NMOS_W3_L06 $T=56340 98500 1 180 $X=53710 $Y=97740
X22 24 17 VSS 13 HBK183_PUCELL_N $T=69190 93910 0 0 $X=69130 $Y=93910
.ENDS
***************************************
.SUBCKT HBK183_POSTDRV_GR_VDD2DYN_S
** N=3 EP=0 IP=0 FDC=0
*.SEEDPROM
.ENDS
***************************************
.SUBCKT HBK183_PREDRV_GR_VDD2DYN_S
** N=4 EP=0 IP=0 FDC=0
*.SEEDPROM
.ENDS
***************************************
.SUBCKT HBK183_DYNVDD2_LINE_VDD_S
** N=2 EP=0 IP=0 FDC=0
.ENDS
***************************************
.SUBCKT HBK183_DYNVDD2_LINE_VDDPST
** N=3 EP=0 IP=0 FDC=0
.ENDS
***************************************
.SUBCKT HBK183_PAD_LINE_VDD2DYN_S
** N=4 EP=0 IP=54 FDC=0
.ENDS
***************************************
.SUBCKT HBK183_NMOS_W26_L06_DYN_VDD2_S
** N=4 EP=0 IP=0 FDC=0
.ENDS
***************************************
.SUBCKT ICV_19
** N=4 EP=0 IP=8 FDC=0
.ENDS
***************************************
.SUBCKT ICV_20
** N=4 EP=0 IP=8 FDC=0
.ENDS
***************************************
.SUBCKT HBK183_RES_8X024_DYN_S
** N=2 EP=0 IP=0 FDC=0
.ENDS
***************************************
.SUBCKT HBK183_NMOS_5X2_S
** N=5 EP=0 IP=0 FDC=0
.ENDS
***************************************
.SUBCKT HBK183_NMOS_W15_L6D3_DYN_2
** N=3 EP=0 IP=0 FDC=0
.ENDS
***************************************
.SUBCKT ICV_21
** N=3 EP=0 IP=6 FDC=0
.ENDS
***************************************
.SUBCKT PVDD2CDG VDDPST VSSPST VSS 6
** N=10 EP=4 IP=96 FDC=60
*.SEEDPROM
M0 VDDPST 9 VSSPST 6 ND L=6e-07 W=2.6e-05 $X=4130 $Y=5590 $D=1
M1 VDDPST 7 VSS 6 ND L=6e-07 W=2.6e-05 $X=4130 $Y=85680 $D=1
M2 VSSPST 9 VDDPST 6 ND L=6e-07 W=2.6e-05 $X=8390 $Y=5590 $D=1
M3 VSS 7 VDDPST 6 ND L=6e-07 W=2.6e-05 $X=8390 $Y=85680 $D=1
M4 VDDPST 9 VSSPST 6 ND L=6e-07 W=2.6e-05 $X=10210 $Y=5590 $D=1
M5 VDDPST 7 VSS 6 ND L=6e-07 W=2.6e-05 $X=10210 $Y=85680 $D=1
M6 VSSPST 9 VDDPST 6 ND L=6e-07 W=2.6e-05 $X=14470 $Y=5590 $D=1
M7 VSS 7 VDDPST 6 ND L=6e-07 W=2.6e-05 $X=14470 $Y=85680 $D=1
M8 VDDPST 9 VSSPST 6 ND L=6e-07 W=2.6e-05 $X=16290 $Y=5590 $D=1
M9 VDDPST 7 VSS 6 ND L=6e-07 W=2.6e-05 $X=16290 $Y=85680 $D=1
M10 VSSPST 8 7 VSSPST ND L=1e-06 W=1e-06 $X=20320 $Y=75070 $D=1
M11 VSSPST 9 VDDPST 6 ND L=6e-07 W=2.6e-05 $X=20550 $Y=5590 $D=1
M12 VSS 7 VDDPST 6 ND L=6e-07 W=2.6e-05 $X=20550 $Y=85680 $D=1
M13 VDDPST 9 VSSPST 6 ND L=6e-07 W=2.6e-05 $X=22370 $Y=5590 $D=1
M14 VDDPST 7 VSS 6 ND L=6e-07 W=2.6e-05 $X=22370 $Y=85680 $D=1
M15 VSSPST 8 VSSPST VSSPST ND L=6.3e-06 W=1.683e-05 $X=22740 $Y=47370 $D=1
M16 VSSPST 8 VSSPST VSSPST ND L=6.3e-06 W=1.683e-05 $X=22740 $Y=54970 $D=1
M17 VSSPST 8 VSSPST VSSPST ND L=6.3e-06 W=1.683e-05 $X=22740 $Y=62570 $D=1
M18 VSSPST 8 VSSPST VSSPST ND L=6.3e-06 W=1.683e-05 $X=22740 $Y=70170 $D=1
M19 VSSPST 9 VDDPST 6 ND L=6e-07 W=2.6e-05 $X=26630 $Y=5590 $D=1
M20 VSS 7 VDDPST 6 ND L=6e-07 W=2.6e-05 $X=26630 $Y=85680 $D=1
M21 VDDPST 9 VSSPST 6 ND L=6e-07 W=2.6e-05 $X=28450 $Y=5590 $D=1
M22 VDDPST 7 VSS 6 ND L=6e-07 W=2.6e-05 $X=28450 $Y=85680 $D=1
M23 VSSPST 9 VDDPST 6 ND L=6e-07 W=2.6e-05 $X=32710 $Y=5590 $D=1
M24 VSS 7 VDDPST 6 ND L=6e-07 W=2.6e-05 $X=32710 $Y=85680 $D=1
M25 VDDPST 9 VSSPST 6 ND L=6e-07 W=2.6e-05 $X=34530 $Y=5590 $D=1
M26 VDDPST 7 VSS 6 ND L=6e-07 W=2.6e-05 $X=34530 $Y=85680 $D=1
M27 VSSPST 9 VDDPST 6 ND L=6e-07 W=2.6e-05 $X=38790 $Y=5590 $D=1
M28 VSS 7 VDDPST 6 ND L=6e-07 W=2.6e-05 $X=38790 $Y=85680 $D=1
M29 VSSPST 8 VSSPST VSSPST ND L=6.3e-06 W=1.683e-05 $X=40430 $Y=47370 $D=1
M30 VSSPST 8 VSSPST VSSPST ND L=6.3e-06 W=1.683e-05 $X=40430 $Y=54970 $D=1
M31 VSSPST 8 VSSPST VSSPST ND L=6.3e-06 W=1.683e-05 $X=40430 $Y=62570 $D=1
M32 VSSPST 8 VSSPST VSSPST ND L=6.3e-06 W=1.683e-05 $X=40430 $Y=70170 $D=1
M33 VDDPST 9 VSSPST 6 ND L=6e-07 W=2.6e-05 $X=40610 $Y=5590 $D=1
M34 VDDPST 7 VSS 6 ND L=6e-07 W=2.6e-05 $X=40610 $Y=85680 $D=1
M35 VSSPST 9 VDDPST 6 ND L=6e-07 W=2.6e-05 $X=44870 $Y=5590 $D=1
M36 VSS 7 VDDPST 6 ND L=6e-07 W=2.6e-05 $X=44870 $Y=85680 $D=1
M37 VDDPST 9 VSSPST 6 ND L=6e-07 W=2.6e-05 $X=46690 $Y=5590 $D=1
M38 VDDPST 7 VSS 6 ND L=6e-07 W=2.6e-05 $X=46690 $Y=85680 $D=1
M39 VSSPST 9 VDDPST 6 ND L=6e-07 W=2.6e-05 $X=50950 $Y=5590 $D=1
M40 VSS 7 VDDPST 6 ND L=6e-07 W=2.6e-05 $X=50950 $Y=85680 $D=1
M41 VDDPST 9 VSSPST 6 ND L=6e-07 W=2.6e-05 $X=52770 $Y=5590 $D=1
M42 VDDPST 7 VSS 6 ND L=6e-07 W=2.6e-05 $X=52770 $Y=85680 $D=1
M43 VSSPST 9 VDDPST 6 ND L=6e-07 W=2.6e-05 $X=57030 $Y=5590 $D=1
M44 VSS 7 VDDPST 6 ND L=6e-07 W=2.6e-05 $X=57030 $Y=85680 $D=1
M45 9 8 VSSPST VSSPST ND L=1e-06 W=1e-06 $X=58680 $Y=46890 $D=1
M46 VDDPST 9 VSSPST 6 ND L=6e-07 W=2.6e-05 $X=58850 $Y=5590 $D=1
M47 VDDPST 7 VSS 6 ND L=6e-07 W=2.6e-05 $X=58850 $Y=85680 $D=1
M48 VSSPST 9 VDDPST 6 ND L=6e-07 W=2.6e-05 $X=63110 $Y=5590 $D=1
M49 VSS 7 VDDPST 6 ND L=6e-07 W=2.6e-05 $X=63110 $Y=85680 $D=1
M50 VDDPST 9 VSSPST 6 ND L=6e-07 W=2.6e-05 $X=64930 $Y=5590 $D=1