* SPICE NETLIST
***************************************

.SUBCKT crtmom PLUS MINUS BULK
.ENDS
***************************************
.SUBCKT cfmom PLUS MINUS BULK
.ENDS
***************************************
.SUBCKT cfmom_mx PLUS1 MINUS1 PLUS2 MINUS2 BULK
.ENDS
***************************************
.SUBCKT mimcap_1p0_sin TOP BOT
.ENDS
***************************************
.SUBCKT mimcap_1p0_sin_3t PLUS MINUS BULK
.ENDS
***************************************
.SUBCKT mimcap_2p0_sin TOP BOT
.ENDS
***************************************
.SUBCKT mimcap_2p0_sin_3t PLUS MINUS BULK
.ENDS
***************************************
.SUBCKT na20_g5a_cfp_mac D G S B
.ENDS
***************************************
.SUBCKT na20_g5a_nbl_cfp_mac D G S B SUB
.ENDS
***************************************
.SUBCKT na29_g5a_cfp_mac D G S B
.ENDS
***************************************
.SUBCKT na29_g5a_nbl_cfp_mac D G S B SUB
.ENDS
***************************************
.SUBCKT na6_g5a_nbl_v2_mac D G S B SUB
.ENDS
***************************************
.SUBCKT nch_hv5_5vnw_ac D G S B
.ENDS
***************************************
.SUBCKT nda29_g3a_nbl_cfp_mac D G S B SUB
.ENDS
***************************************
.SUBCKT nda45_g3b_nbl_cfp_mac D G BS SUB
.ENDS
***************************************
.SUBCKT ndio_sbd_mac PLUS MINUS
.ENDS
***************************************
.SUBCKT nld12_g5a_cfp_mac D G BS
.ENDS
***************************************
.SUBCKT nld12_g5a_iso_cfp_mac D G BS NBL_ISO SUB
.ENDS
***************************************
.SUBCKT nld16_g5a_cfp_mac D G BS
.ENDS
***************************************
.SUBCKT nld16_g5a_iso_cfp_mac D G BS NBL_ISO SUB
.ENDS
***************************************
.SUBCKT nld20_g5a_cfp_mac D G BS
.ENDS
***************************************
.SUBCKT nld20_g5a_iso_cfp_mac D G BS NBL_ISO SUB
.ENDS
***************************************
.SUBCKT nld24_g5a_cfp_mac D G BS
.ENDS
***************************************
.SUBCKT nld24_g5a_iso_cfp_mac D G BS NBL_ISO SUB
.ENDS
***************************************
.SUBCKT nld24_g5a_iso_switch_cfp_mac D G BS NBL_ISO SUB
.ENDS
***************************************
.SUBCKT nld24_g5a_switch_cfp_mac D G BS
.ENDS
***************************************
.SUBCKT nld36_g5b_nbl_cfp_mac D G BS SUB
.ENDS
***************************************
.SUBCKT nld45_g5b_nbl_cfp_mac D G BS SUB
.ENDS
***************************************
.SUBCKT nld5_g5a_iso_switch_mac D G BS NBL_ISO SUB
.ENDS
***************************************
.SUBCKT nld6_g5a_de_iso_v2_mac D G BS NBL_ISO SUB
.ENDS
***************************************
.SUBCKT nld6_g5a_de_mac D G BS
.ENDS
***************************************
.SUBCKT nld6_g5a_sa_iso_v2_mac D G BS NBL_ISO SUB
.ENDS
***************************************
.SUBCKT nld6_g5a_sa_mac D G BS
.ENDS
***************************************
.SUBCKT nld9_g5a_iso_mac D G BS NBL_ISO SUB
.ENDS
***************************************
.SUBCKT nld9_g5a_mac D G BS
.ENDS
***************************************
.SUBCKT nmoscap PLUS MINUS
.ENDS
***************************************
.SUBCKT nmoscap_5 PLUS MINUS
.ENDS
***************************************
.SUBCKT nmoscap_5_mis PLUS MINUS
.ENDS
***************************************
.SUBCKT npddshnnbl10_ga_bgr8_7t C1 C8 B1 B8 E1 E8 SUB
.ENDS
***************************************
.SUBCKT npddshnnbl10_ga_poly_4t C B E SUB
.ENDS
***************************************
.SUBCKT npddshnnbl2_ga_poly_4t C B E SUB
.ENDS
***************************************
.SUBCKT npddshnnbl5_ga_poly_4t C B E SUB
.ENDS
***************************************
.SUBCKT npwshnnbl10_ga_bgr8_7t C1 C8 B1 B8 E1 E8 SUB
.ENDS
***************************************
.SUBCKT npwshnnbl10_ga_poly_4t C B E SUB
.ENDS
***************************************
.SUBCKT npwshnnbl2_ga_poly_4t C B E SUB
.ENDS
***************************************
.SUBCKT npwshnnbl5_ga_poly_4t C B E SUB
.ENDS
***************************************
.SUBCKT pa12_g5a_nbl_slit_v2_mac D G BS SUB
.ENDS
***************************************
.SUBCKT pa12_g5a_nbl_v2_mac D G S B SUB
.ENDS
***************************************
.SUBCKT pa16_g5a_nbl_cfp_mac D G S B SUB
.ENDS
***************************************
.SUBCKT pa16_g5a_nbl_slit_cfp_mac D G BS SUB
.ENDS
***************************************
.SUBCKT pa20_g5a_nbl_cfp_mac D G S B SUB
.ENDS
***************************************
.SUBCKT pa20_g5a_nbl_slit_cfp_mac D G BS SUB
.ENDS
***************************************
.SUBCKT pa29_g5a_nbl_cfp_mac D G S B SUB
.ENDS
***************************************
.SUBCKT pa36_g5b_nbl_cfp_mac D G S B SUB
.ENDS
***************************************
.SUBCKT pa45_g5b_nbl_cfp_mac D G S B SUB
.ENDS
***************************************
.SUBCKT pa6_g5a_de_nbl_v2_mac D G S B SUB
.ENDS
***************************************
.SUBCKT pa6_g5a_sa_nbl_v2_mac D G S B SUB
.ENDS
***************************************
.SUBCKT pa9_g5a_nbl_mac D G S B SUB
.ENDS
***************************************
.SUBCKT pa9_g5a_nbl_slit_mac D G BS SUB
.ENDS
***************************************
.SUBCKT pbhvnwshnnbl_esd_dio_shp_gb_3t PLUS MINUS SUB
.ENDS
***************************************
.SUBCKT pbshnnbl_dio_shp_ga_3t PLUS MINUS SUB
.ENDS
***************************************
.SUBCKT pch5_as_switch_mac D G BS SUB
.ENDS
***************************************
.SUBCKT pddshnnbl_dio_shp_ga_3t PLUS MINUS SUB
.ENDS
***************************************
.SUBCKT pdio_esd_ga_12_pdd_3t PLUS MINUS SUB
.ENDS
***************************************
.SUBCKT pdio_esd_ga_12_v4_3t PLUS MINUS SUB
.ENDS
***************************************
.SUBCKT pdio_esd_ga_16_v3_3t PLUS MINUS SUB
.ENDS
***************************************
.SUBCKT pdio_esd_ga_20_pdd_3t PLUS MINUS SUB
.ENDS
***************************************
.SUBCKT pdio_esd_ga_20_v3_3t PLUS MINUS SUB
.ENDS
***************************************
.SUBCKT pdio_esd_ga_24_v3_3t PLUS MINUS SUB
.ENDS
***************************************
.SUBCKT pdio_esd_ga_29_v3_3t PLUS MINUS SUB
.ENDS
***************************************
.SUBCKT pdio_esd_ga_6_v3_3t PLUS MINUS SUB
.ENDS
***************************************
.SUBCKT pdio_esd_ga_9_v3_3t PLUS MINUS SUB
.ENDS
***************************************
.SUBCKT pdio_esd_gb_36_3t PLUS MINUS SUB
.ENDS
***************************************
.SUBCKT pdio_esd_gb_45_cit_v3_3t PLUS MINUS SUB
.ENDS
***************************************
.SUBCKT phvnwpsub10_gb_poly C B E
.ENDS
***************************************
.SUBCKT phvnwpsub2_gb_poly C B E
.ENDS
***************************************
.SUBCKT phvnwpsub5_gb_poly C B E
.ENDS
***************************************
.SUBCKT pnddpsub10_ga_poly C B E
.ENDS
***************************************
.SUBCKT pnddpsub2_ga_poly C B E
.ENDS
***************************************
.SUBCKT pnddpsub5_ga_poly C B E
.ENDS
***************************************
.SUBCKT pnddshp5_nbl_ga_4t C B E SUB
.ENDS
***************************************
.SUBCKT rnod_m PLUS MINUS B
.ENDS
***************************************
.SUBCKT rnodrpo_m PLUS MINUS B
.ENDS
***************************************
.SUBCKT rnodrpo_pure5v PLUS MINUS
.ENDS
***************************************
.SUBCKT rnodrpo_pure5v_m PLUS MINUS B
.ENDS
***************************************
.SUBCKT rnodw_m PLUS MINUS B
.ENDS
***************************************
.SUBCKT rnpo1_dis PLUS MINUS B
.ENDS
***************************************
.SUBCKT rnpo1rpo_dis PLUS MINUS B
.ENDS
***************************************
.SUBCKT rnpo1rpo_pure5v PLUS MINUS
.ENDS
***************************************
.SUBCKT rnpo1rpo_pure5v_dis PLUS MINUS B
.ENDS
***************************************
.SUBCKT rnpo1w_dis PLUS MINUS B
.ENDS
***************************************
.SUBCKT rnwod_m PLUS MINUS B
.ENDS
***************************************
.SUBCKT rnwod_pure5v PLUS MINUS
.ENDS
***************************************
.SUBCKT rnwod_pure5v_m PLUS MINUS B
.ENDS
***************************************
.SUBCKT rnwsti_m PLUS MINUS B
.ENDS
***************************************
.SUBCKT rnwsti_pure5v PLUS MINUS
.ENDS
***************************************
.SUBCKT rnwsti_pure5v_m PLUS MINUS B
.ENDS
***************************************
.SUBCKT rpod_m PLUS MINUS B
.ENDS
***************************************
.SUBCKT rpodrpo_m PLUS MINUS B
.ENDS
***************************************
.SUBCKT rpodrpo_pure5v PLUS MINUS
.ENDS
***************************************
.SUBCKT rpodrpo_pure5v_m PLUS MINUS B
.ENDS
***************************************
.SUBCKT rpodw_m PLUS MINUS B
.ENDS
***************************************
.SUBCKT rppo1_dis PLUS MINUS B
.ENDS
***************************************
.SUBCKT rppo1rpo_dis PLUS MINUS B
.ENDS
***************************************
.SUBCKT rppo1rpo_pure5v PLUS MINUS
.ENDS
***************************************
.SUBCKT rppo1rpo_pure5v_dis PLUS MINUS B
.ENDS
***************************************
.SUBCKT rppo1rpo_serp PLUS MINUS
.ENDS
***************************************
.SUBCKT rppo1rpo_serp_dis PLUS MINUS B
.ENDS
***************************************
.SUBCKT rppo1w_dis PLUS MINUS B
.ENDS
***************************************
.SUBCKT rppolyhri1k PLUS MINUS
.ENDS
***************************************
.SUBCKT rppolyhri1k_dis PLUS MINUS BULK
.ENDS
***************************************
.SUBCKT rppolyhri3d3k PLUS MINUS
.ENDS
***************************************
.SUBCKT rppolyhri3d3k_dis PLUS MINUS BULK
.ENDS
***************************************
.SUBCKT rppolyhri3d3k_serp PLUS MINUS
.ENDS
***************************************
.SUBCKT rppolyhri3d3k_serp_dis PLUS MINUS BULK
.ENDS
***************************************
.SUBCKT sbd_dio_ga_12_v2_3t PLUS MINUS SUB
.ENDS
***************************************
.SUBCKT sbd_dio_ga_16_v2_3t PLUS MINUS SUB
.ENDS
***************************************
.SUBCKT sbd_dio_ga_24_v2_3t PLUS MINUS SUB
.ENDS
***************************************
.SUBCKT shpnblshn_dio_shp_gb_3t PLUS MINUS SUB
.ENDS
***************************************
.SUBCKT shpshnnbl_esd_dio_shp_ga_3t PLUS MINUS SUB
.ENDS
***************************************
.SUBCKT zd_dio_ga_nbl_v2_4t PLUS MINUS NBL_ISO SUB
.ENDS
***************************************
.SUBCKT TAPCELLBWP7T
** N=2 EP=0 IP=0 FDC=0
.ENDS
***************************************
.SUBCKT ANTENNABWP7T VSS I
** N=3 EP=2 IP=0 FDC=1
D0 VSS I DN AREA=2.037e-13 PJ=1.81e-06 $X=140 $Y=520 $D=32
.ENDS
***************************************
.SUBCKT ICV_1 1 3 4
** N=4 EP=3 IP=6 FDC=2
X0 1 3 ANTENNABWP7T $T=0 0 0 0 $X=-290 $Y=-235
X1 1 4 ANTENNABWP7T $T=1120 0 0 0 $X=830 $Y=-235
.ENDS
***************************************
.SUBCKT ICV_2 1 3 4
** N=4 EP=3 IP=6 FDC=2
X0 1 3 ANTENNABWP7T $T=-1120 0 0 0 $X=-1410 $Y=-235
X1 1 4 ANTENNABWP7T $T=0 0 0 0 $X=-290 $Y=-235
.ENDS
***************************************
.SUBCKT FILL1BWP7T
** N=3 EP=0 IP=0 FDC=0
.ENDS
***************************************
.SUBCKT CKBD1BWP7T I VSS VDD Z
** N=5 EP=4 IP=0 FDC=4
M0 VSS I 5 VSS N L=1.8e-07 W=4.55e-07 $X=620 $Y=425 $D=0
M1 Z 5 VSS VSS N L=1.8e-07 W=5.2e-07 $X=1440 $Y=360 $D=0
M2 VDD I 5 VDD P L=1.8e-07 W=1.37e-06 $X=620 $Y=2205 $D=16
M3 Z 5 VDD VDD P L=1.8e-07 W=1.37e-06 $X=1440 $Y=2205 $D=16
.ENDS
***************************************
.SUBCKT INVD0BWP7T I VSS VDD ZN
** N=4 EP=4 IP=0 FDC=2
M0 ZN I VSS VSS N L=1.8e-07 W=5e-07 $X=840 $Y=560 $D=0
M1 ZN I VDD VDD P L=1.8e-07 W=6.85e-07 $X=840 $Y=2575 $D=16
.ENDS
***************************************
.SUBCKT BUFFD1P5BWP7T I Z VSS VDD
** N=5 EP=4 IP=0 FDC=6
M0 VSS I 5 VSS N L=1.8e-07 W=1e-06 $X=620 $Y=345 $D=0
M1 Z 5 VSS VSS N L=1.8e-07 W=1e-06 $X=1340 $Y=345 $D=0
M2 VSS 5 Z VSS N L=1.8e-07 W=4.65e-07 $X=2060 $Y=880 $D=0
M3 VDD I 5 VDD P L=1.8e-07 W=1.37e-06 $X=620 $Y=2205 $D=16
M4 Z 5 VDD VDD P L=1.8e-07 W=1.37e-06 $X=1340 $Y=2205 $D=16
M5 VDD 5 Z VDD P L=1.8e-07 W=6.85e-07 $X=2060 $Y=2205 $D=16
.ENDS
***************************************
.SUBCKT INVD3BWP7T I VSS VDD ZN
** N=4 EP=4 IP=0 FDC=6
M0 ZN I VSS VSS N L=1.8e-07 W=1e-06 $X=885 $Y=345 $D=0
M1 VSS I ZN VSS N L=1.8e-07 W=1e-06 $X=1605 $Y=345 $D=0
M2 ZN I VSS VSS N L=1.8e-07 W=1e-06 $X=2535 $Y=345 $D=0
M3 ZN I VDD VDD P L=1.8e-07 W=1.37e-06 $X=885 $Y=2205 $D=16
M4 VDD I ZN VDD P L=1.8e-07 W=1.37e-06 $X=1605 $Y=2205 $D=16
M5 ZN I VDD VDD P L=1.8e-07 W=1.37e-06 $X=2535 $Y=2205 $D=16
.ENDS
***************************************
.SUBCKT MAOI22D0BWP7T B1 B2 VDD VSS A1 ZN A2
** N=11 EP=7 IP=0 FDC=10
M0 8 B1 VSS VSS N L=1.8e-07 W=5e-07 $X=460 $Y=845 $D=0
M1 VSS B2 8 VSS N L=1.8e-07 W=5e-07 $X=1180 $Y=845 $D=0
M2 ZN 8 VSS VSS N L=1.8e-07 W=5e-07 $X=1980 $Y=845 $D=0
M3 9 A1 ZN VSS N L=1.8e-07 W=5e-07 $X=2700 $Y=845 $D=0
M4 VSS A2 9 VSS N L=1.8e-07 W=5e-07 $X=3280 $Y=845 $D=0
M5 10 B1 8 VDD P L=1.8e-07 W=6.85e-07 $X=620 $Y=2625 $D=16
M6 VDD B2 10 VDD P L=1.8e-07 W=6.85e-07 $X=1050 $Y=2625 $D=16
M7 11 8 VDD VDD P L=1.8e-07 W=6.85e-07 $X=1850 $Y=2625 $D=16
M8 ZN A1 11 VDD P L=1.8e-07 W=6.85e-07 $X=2560 $Y=2300 $D=16
M9 11 A2 ZN VDD P L=1.8e-07 W=6.85e-07 $X=3280 $Y=2300 $D=16
.ENDS
***************************************
.SUBCKT FILL2BWP7T
** N=4 EP=0 IP=0 FDC=0
.ENDS
***************************************
.SUBCKT MAOI22D2BWP7T A1 A2 B1 B2 ZN VSS VDD
** N=12 EP=7 IP=0 FDC=14
M0 11 A1 8 VSS N L=1.8e-07 W=1e-06 $X=620 $Y=345 $D=0
M1 VSS A2 11 VSS N L=1.8e-07 W=1e-06 $X=1060 $Y=345 $D=0
M2 9 8 VSS VSS N L=1.8e-07 W=1e-06 $X=1780 $Y=345 $D=0
M3 10 B1 9 VSS N L=1.8e-07 W=1e-06 $X=2500 $Y=345 $D=0
M4 9 B2 10 VSS N L=1.8e-07 W=1e-06 $X=3220 $Y=345 $D=0
M5 ZN 10 VSS VSS N L=1.8e-07 W=1e-06 $X=4640 $Y=345 $D=0
M6 VSS 10 ZN VSS N L=1.8e-07 W=1e-06 $X=5360 $Y=345 $D=0
M7 8 A1 VDD VDD P L=1.8e-07 W=1.37e-06 $X=620 $Y=2205 $D=16
M8 VDD A2 8 VDD P L=1.8e-07 W=1.37e-06 $X=1340 $Y=2205 $D=16
M9 10 8 VDD VDD P L=1.8e-07 W=1.37e-06 $X=2060 $Y=2205 $D=16
M10 12 B1 10 VDD P L=1.8e-07 W=1.37e-06 $X=2785 $Y=2205 $D=16
M11 VDD B2 12 VDD P L=1.8e-07 W=1.37e-06 $X=3380 $Y=2205 $D=16
M12 ZN 10 VDD VDD P L=1.8e-07 W=1.37e-06 $X=4640 $Y=2205 $D=16
M13 VDD 10 ZN VDD P L=1.8e-07 W=1.37e-06 $X=5360 $Y=2205 $D=16
.ENDS
***************************************
.SUBCKT IAO22D2BWP7T A2 A1 ZN B1 VSS B2 VDD
** N=12 EP=7 IP=0 FDC=14
M0 8 10 9 VSS N L=1.8e-07 W=1e-06 $X=620 $Y=345 $D=0
M1 VSS A2 8 VSS N L=1.8e-07 W=1e-06 $X=1340 $Y=345 $D=0
M2 8 A1 VSS VSS N L=1.8e-07 W=1e-06 $X=2140 $Y=345 $D=0
M3 ZN 9 VSS VSS N L=1.8e-07 W=1e-06 $X=3490 $Y=345 $D=0
M4 VSS 9 ZN VSS N L=1.8e-07 W=1e-06 $X=4210 $Y=345 $D=0
M5 11 B1 VSS VSS N L=1.8e-07 W=5e-07 $X=4930 $Y=345 $D=0
M6 10 B2 11 VSS N L=1.8e-07 W=5e-07 $X=5360 $Y=345 $D=0
M7 9 10 VDD VDD P L=1.8e-07 W=1.37e-06 $X=685 $Y=2205 $D=16
M8 12 A2 9 VDD P L=1.8e-07 W=1.37e-06 $X=1405 $Y=2205 $D=16
M9 VDD A1 12 VDD P L=1.8e-07 W=1.37e-06 $X=1965 $Y=2205 $D=16
M10 ZN 9 VDD VDD P L=1.8e-07 W=1.37e-06 $X=2795 $Y=2205 $D=16
M11 VDD 9 ZN VDD P L=1.8e-07 W=1.37e-06 $X=3840 $Y=2205 $D=16
M12 10 B1 VDD VDD P L=1.8e-07 W=6.85e-07 $X=4640 $Y=2820 $D=16
M13 VDD B2 10 VDD P L=1.8e-07 W=6.85e-07 $X=5360 $Y=2820 $D=16
.ENDS
***************************************
.SUBCKT BUFFD1BWP7T I VSS VDD Z
** N=5 EP=4 IP=0 FDC=4
M0 VSS I 5 VSS N L=1.8e-07 W=5e-07 $X=625 $Y=845 $D=0
M1 Z 5 VSS VSS N L=1.8e-07 W=1e-06 $X=1425 $Y=345 $D=0
M2 VDD I 5 VDD P L=1.8e-07 W=6.85e-07 $X=625 $Y=2205 $D=16
M3 Z 5 VDD VDD P L=1.8e-07 W=1.37e-06 $X=1425 $Y=2205 $D=16
.ENDS
***************************************
.SUBCKT DCAP4BWP7T VSS VDD
** N=4 EP=2 IP=0 FDC=4
M0 VSS 4 VSS VSS N L=2.8e-07 W=1e-06 $X=620 $Y=345 $D=0
M1 3 4 VSS VSS N L=1.8e-07 W=1e-06 $X=1440 $Y=345 $D=0
M2 VDD 3 VDD VDD P L=2.8e-07 W=1.17e-06 $X=620 $Y=2405 $D=16
M3 4 3 VDD VDD P L=1.8e-07 W=1.17e-06 $X=1440 $Y=2405 $D=16
.ENDS
***************************************
.SUBCKT ICV_3 1 2
** N=2 EP=2 IP=4 FDC=4
X1 1 2 DCAP4BWP7T $T=0 0 0 0 $X=-290 $Y=-235
.ENDS
***************************************
.SUBCKT DCAP8BWP7T VSS VDD
** N=4 EP=2 IP=0 FDC=6
M0 VSS 4 VSS VSS N L=9.9e-07 W=9.45e-07 $X=620 $Y=345 $D=0
M1 VSS 4 VSS VSS N L=9.9e-07 W=9.45e-07 $X=2150 $Y=345 $D=0
M2 3 4 VSS VSS N L=1.8e-07 W=9.45e-07 $X=3680 $Y=345 $D=0
M3 VDD 3 VDD VDD P L=9.9e-07 W=1.37e-06 $X=620 $Y=2205 $D=16
M4 VDD 3 VDD VDD P L=9.9e-07 W=1.235e-06 $X=2150 $Y=2340 $D=16
M5 4 3 VDD VDD P L=1.8e-07 W=1.235e-06 $X=3680 $Y=2340 $D=16
.ENDS
***************************************
.SUBCKT DCAPBWP7T VDD VSS
** N=4 EP=2 IP=0 FDC=2
M0 3 4 VSS VSS N L=1.8e-07 W=1e-06 $X=800 $Y=345 $D=0
M1 4 3 VDD VDD P L=1.8e-07 W=1.37e-06 $X=680 $Y=2205 $D=16
.ENDS
***************************************
.SUBCKT AO222D0BWP7T B2 A1 A2 B1 C1 C2 VSS VDD Z
** N=15 EP=9 IP=0 FDC=14
M0 12 A1 11 VSS N L=1.8e-07 W=5e-07 $X=1085 $Y=455 $D=0
M1 VSS A2 12 VSS N L=1.8e-07 W=5e-07 $X=1555 $Y=455 $D=0
M2 13 B2 VSS VSS N L=1.8e-07 W=5e-07 $X=2355 $Y=455 $D=0
M3 11 B1 13 VSS N L=1.8e-07 W=5e-07 $X=2825 $Y=455 $D=0
M4 14 C1 11 VSS N L=1.8e-07 W=5e-07 $X=3615 $Y=455 $D=0
M5 VSS C2 14 VSS N L=1.8e-07 W=5e-07 $X=4250 $Y=455 $D=0
M6 Z 11 VSS VSS N L=1.8e-07 W=5e-07 $X=5360 $Y=455 $D=0
M7 15 B2 10 VDD P L=1.8e-07 W=6.85e-07 $X=620 $Y=2760 $D=16
M8 11 A1 15 VDD P L=1.8e-07 W=6.85e-07 $X=1240 $Y=2500 $D=16
M9 15 A2 11 VDD P L=1.8e-07 W=6.85e-07 $X=1960 $Y=2500 $D=16
M10 10 B1 15 VDD P L=1.8e-07 W=6.85e-07 $X=2580 $Y=2500 $D=16
M11 VDD C1 10 VDD P L=1.8e-07 W=6.85e-07 $X=3300 $Y=2500 $D=16
M12 10 C2 VDD VDD P L=1.8e-07 W=6.85e-07 $X=4100 $Y=2500 $D=16
M13 Z 11 VDD VDD P L=1.8e-07 W=6.85e-07 $X=5360 $Y=2300 $D=16
.ENDS
***************************************
.SUBCKT OAI221D1BWP7T C VSS B2 B1 A2 VDD ZN A1
** N=12 EP=8 IP=0 FDC=10
M0 9 C VSS VSS N L=1.8e-07 W=1e-06 $X=625 $Y=345 $D=0
M1 10 B2 9 VSS N L=1.8e-07 W=1e-06 $X=1345 $Y=345 $D=0
M2 9 B1 10 VSS N L=1.8e-07 W=1e-06 $X=2065 $Y=345 $D=0
M3 ZN A2 10 VSS N L=1.8e-07 W=1e-06 $X=3520 $Y=345 $D=0
M4 10 A1 ZN VSS N L=1.8e-07 W=1e-06 $X=4240 $Y=345 $D=0
M5 ZN C VDD VDD P L=1.8e-07 W=1.37e-06 $X=625 $Y=2205 $D=16
M6 11 B2 ZN VDD P L=1.8e-07 W=1.37e-06 $X=1345 $Y=2205 $D=16
M7 VDD B1 11 VDD P L=1.8e-07 W=1.37e-06 $X=1825 $Y=2205 $D=16
M8 12 A2 VDD VDD P L=1.8e-07 W=1.37e-06 $X=3520 $Y=2205 $D=16
M9 ZN A1 12 VDD P L=1.8e-07 W=1.37e-06 $X=4240 $Y=2205 $D=16
.ENDS
***************************************
.SUBCKT AO222D1BWP7T A2 A1 B1 B2 C1 C2 VSS VDD Z
** N=15 EP=9 IP=0 FDC=14
M0 13 A2 VSS VSS N L=1.8e-07 W=1e-06 $X=620 $Y=345 $D=0
M1 12 A1 13 VSS N L=1.8e-07 W=1e-06 $X=1345 $Y=345 $D=0
M2 14 B1 12 VSS N L=1.8e-07 W=1e-06 $X=2065 $Y=345 $D=0
M3 VSS B2 14 VSS N L=1.8e-07 W=1e-06 $X=2580 $Y=345 $D=0
M4 15 C1 12 VSS N L=1.8e-07 W=1e-06 $X=4300 $Y=345 $D=0
M5 VSS C2 15 VSS N L=1.8e-07 W=1e-06 $X=5020 $Y=345 $D=0
M6 Z 12 VSS VSS N L=1.8e-07 W=1e-06 $X=5920 $Y=345 $D=0
M7 12 A2 10 VDD P L=1.8e-07 W=1.37e-06 $X=620 $Y=2205 $D=16
M8 10 A1 12 VDD P L=1.8e-07 W=1.37e-06 $X=1345 $Y=2205 $D=16
M9 11 B1 10 VDD P L=1.8e-07 W=1.37e-06 $X=2065 $Y=2205 $D=16
M10 10 B2 11 VDD P L=1.8e-07 W=1.37e-06 $X=2840 $Y=2205 $D=16
M11 11 C1 VDD VDD P L=1.8e-07 W=1.37e-06 $X=4300 $Y=2205 $D=16
M12 VDD C2 11 VDD P L=1.8e-07 W=1.37e-06 $X=5020 $Y=2205 $D=16
M13 Z 12 VDD VDD P L=1.8e-07 W=1.37e-06 $X=5920 $Y=2205 $D=16
.ENDS
***************************************
.SUBCKT ICV_4 1 2
** N=2 EP=2 IP=4 FDC=6
X0 1 2 DCAP4BWP7T $T=0 0 0 0 $X=-290 $Y=-235
X1 2 1 DCAPBWP7T $T=2240 0 0 0 $X=1950 $Y=-235
.ENDS
***************************************
.SUBCKT DFCNQD1BWP7T CP D CDN VDD VSS Q
** N=19 EP=6 IP=0 FDC=28
M0 VSS CP 7 VSS N L=1.8e-07 W=5e-07 $X=640 $Y=840 $D=0
M1 8 7 VSS VSS N L=1.8e-07 W=5e-07 $X=1240 $Y=840 $D=0
M2 15 7 VSS VSS N L=1.8e-07 W=9.4e-07 $X=2660 $Y=405 $D=0
M3 10 D 15 VSS N L=1.8e-07 W=9.4e-07 $X=3160 $Y=405 $D=0
M4 16 8 10 VSS N L=1.8e-07 W=4.2e-07 $X=4005 $Y=895 $D=0
M5 17 CDN 16 VSS N L=1.8e-07 W=4.2e-07 $X=4435 $Y=895 $D=0
M6 VSS 11 17 VSS N L=1.8e-07 W=4.2e-07 $X=4865 $Y=895 $D=0
M7 11 10 VSS VSS N L=1.8e-07 W=5.4e-07 $X=5715 $Y=775 $D=0
M8 13 8 11 VSS N L=1.8e-07 W=9.1e-07 $X=6435 $Y=405 $D=0
M9 12 7 13 VSS N L=1.8e-07 W=4.2e-07 $X=7255 $Y=895 $D=0
M10 VSS 14 12 VSS N L=1.8e-07 W=4.2e-07 $X=8915 $Y=895 $D=0
M11 18 CDN VSS VSS N L=1.8e-07 W=9.7e-07 $X=9610 $Y=345 $D=0
M12 14 13 18 VSS N L=1.8e-07 W=9.7e-07 $X=10055 $Y=345 $D=0
M13 Q 14 VSS VSS N L=1.8e-07 W=1e-06 $X=11520 $Y=345 $D=0
M14 VDD CP 7 VDD P L=1.8e-07 W=6.85e-07 $X=620 $Y=2345 $D=16
M15 8 7 VDD VDD P L=1.8e-07 W=6.85e-07 $X=1240 $Y=2345 $D=16
M16 19 8 VDD VDD P L=1.8e-07 W=1.37e-06 $X=2525 $Y=2205 $D=16
M17 10 D 19 VDD P L=1.8e-07 W=1.37e-06 $X=2955 $Y=2205 $D=16
M18 9 7 10 VDD P L=1.8e-07 W=4.2e-07 $X=3795 $Y=2365 $D=16
M19 VDD CDN 9 VDD P L=1.8e-07 W=4.2e-07 $X=4515 $Y=2365 $D=16
M20 9 11 VDD VDD P L=1.8e-07 W=4.2e-07 $X=5115 $Y=2365 $D=16
M21 11 10 VDD VDD P L=1.8e-07 W=6.2e-07 $X=6375 $Y=2175 $D=16
M22 13 7 11 VDD P L=1.8e-07 W=6.2e-07 $X=7255 $Y=2175 $D=16
M23 12 8 13 VDD P L=1.8e-07 W=4.2e-07 $X=8080 $Y=2175 $D=16
M24 VDD 14 12 VDD P L=1.8e-07 W=4.2e-07 $X=8915 $Y=2175 $D=16
M25 14 CDN VDD VDD P L=1.8e-07 W=4.2e-07 $X=9850 $Y=3095 $D=16
M26 VDD 13 14 VDD P L=1.8e-07 W=1.37e-06 $X=10680 $Y=2205 $D=16
M27 Q 14 VDD VDD P L=1.8e-07 W=1.37e-06 $X=11520 $Y=2205 $D=16
.ENDS
***************************************
.SUBCKT ICV_5
** N=2 EP=0 IP=4 FDC=0
.ENDS
***************************************
.SUBCKT FILL16BWP7T
** N=19 EP=0 IP=0 FDC=0
.ENDS
***************************************
.SUBCKT FILL8BWP7T
** N=11 EP=0 IP=0 FDC=0
.ENDS
***************************************
.SUBCKT FILL4BWP7T
** N=7 EP=0 IP=0 FDC=0
.ENDS
***************************************
.SUBCKT ICV_6
** N=2 EP=0 IP=4 FDC=0
.ENDS
***************************************
.SUBCKT ICV_7
** N=2 EP=0 IP=4 FDC=0
.ENDS
***************************************
.SUBCKT ICV_8 1 2
** N=2 EP=2 IP=4 FDC=4
X1 1 2 ICV_3 $T=1120 0 0 0 $X=830 $Y=-235
.ENDS
***************************************
.SUBCKT ICV_9 1 2
** N=2 EP=2 IP=4 FDC=6
X1 1 2 DCAP8BWP7T $T=1120 0 0 0 $X=830 $Y=-235
.ENDS
***************************************
.SUBCKT ICV_10 1 2
** N=2 EP=2 IP=4 FDC=4
X1 1 2 DCAP4BWP7T $T=1120 0 0 0 $X=830 $Y=-235
.ENDS
***************************************
.SUBCKT ICV_11
** N=2 EP=0 IP=4 FDC=0
.ENDS
***************************************
.SUBCKT ICV_12
** N=2 EP=0 IP=4 FDC=0
.ENDS
***************************************
.SUBCKT ICV_13 1 2
** N=2 EP=2 IP=4 FDC=4
X1 1 2 DCAP4BWP7T $T=0 0 0 0 $X=-290 $Y=-235
.ENDS
***************************************
.SUBCKT MAOI22D1BWP7T B1 B2 VDD A1 ZN A2 VSS
** N=11 EP=7 IP=0 FDC=10
M0 8 B1 VSS VSS N L=1.8e-07 W=1e-06 $X=620 $Y=345 $D=0
M1 VSS B2 8 VSS N L=1.8e-07 W=1e-06 $X=1340 $Y=345 $D=0
M2 ZN 8 VSS VSS N L=1.8e-07 W=1e-06 $X=2150 $Y=345 $D=0
M3 10 A1 ZN VSS N L=1.8e-07 W=1e-06 $X=2955 $Y=345 $D=0
M4 VSS A2 10 VSS N L=1.8e-07 W=1e-06 $X=3680 $Y=345 $D=0
M5 11 B1 8 VDD P L=1.8e-07 W=1.37e-06 $X=620 $Y=2205 $D=16
M6 VDD B2 11 VDD P L=1.8e-07 W=1.37e-06 $X=1330 $Y=2205 $D=16
M7 9 8 VDD VDD P L=1.8e-07 W=1.37e-06 $X=2150 $Y=2205 $D=16
M8 ZN A1 9 VDD P L=1.8e-07 W=1.37e-06 $X=2955 $Y=2205 $D=16
M9 9 A2 ZN VDD P L=1.8e-07 W=1.37e-06 $X=3680 $Y=2205 $D=16
.ENDS
***************************************
.SUBCKT IOA21D0BWP7T A1 A2 VSS ZN B VDD
** N=9 EP=6 IP=0 FDC=8
M0 8 A1 7 VSS N L=1.8e-07 W=4.2e-07 $X=625 $Y=440 $D=0
M1 VSS A2 8 VSS N L=1.8e-07 W=4.2e-07 $X=1205 $Y=440 $D=0
M2 9 7 VSS VSS N L=1.8e-07 W=5e-07 $X=1945 $Y=360 $D=0
M3 ZN B 9 VSS N L=1.8e-07 W=5e-07 $X=2560 $Y=360 $D=0
M4 7 A1 VDD VDD P L=1.8e-07 W=4.2e-07 $X=465 $Y=2500 $D=16
M5 VDD A2 7 VDD P L=1.8e-07 W=4.2e-07 $X=1185 $Y=2500 $D=16
M6 ZN 7 VDD VDD P L=1.8e-07 W=6.85e-07 $X=1840 $Y=2500 $D=16
M7 VDD B ZN VDD P L=1.8e-07 W=6.85e-07 $X=2560 $Y=2500 $D=16
.ENDS
***************************************
.SUBCKT INVD1BWP7T I VSS VDD ZN
** N=4 EP=4 IP=0 FDC=2
M0 ZN I VSS VSS N L=1.8e-07 W=1e-06 $X=840 $Y=345 $D=0
M1 ZN I VDD VDD P L=1.8e-07 W=1.37e-06 $X=840 $Y=2205 $D=16
.ENDS
***************************************
.SUBCKT ICV_14 1 2
** N=2 EP=2 IP=4 FDC=6
X1 1 2 DCAP8BWP7T $T=0 0 0 0 $X=-290 $Y=-235
.ENDS
***************************************
.SUBCKT ICV_15 1 2 3 4 5 6
** N=6 EP=6 IP=8 FDC=34
X0 1 2 DCAP8BWP7T $T=0 0 1 180 $X=-4770 $Y=-235
X1 3 4 5 2 1 6 DFCNQD1BWP7T $T=0 0 0 0 $X=-290 $Y=-235
.ENDS
***************************************
.SUBCKT BUFFD10BWP7T I Z VSS VDD
** N=5 EP=4 IP=0 FDC=28
M0 5 I VSS VSS N L=1.8e-07 W=4.65e-07 $X=460 $Y=880 $D=0
M1 VSS I 5 VSS N L=1.8e-07 W=1e-06 $X=1180 $Y=345 $D=0
M2 5 I VSS VSS N L=1.8e-07 W=1e-06 $X=1900 $Y=345 $D=0
M3 VSS I 5 VSS N L=1.8e-07 W=1e-06 $X=2620 $Y=345 $D=0
M4 Z 5 VSS VSS N L=1.8e-07 W=1e-06 $X=3340 $Y=345 $D=0
M5 VSS 5 Z VSS N L=1.8e-07 W=1e-06 $X=4060 $Y=345 $D=0
M6 Z 5 VSS VSS N L=1.8e-07 W=1e-06 $X=4780 $Y=345 $D=0
M7 VSS 5 Z VSS N L=1.8e-07 W=1e-06 $X=5500 $Y=345 $D=0
M8 Z 5 VSS VSS N L=1.8e-07 W=1e-06 $X=6220 $Y=345 $D=0
M9 VSS 5 Z VSS N L=1.8e-07 W=1e-06 $X=6940 $Y=345 $D=0
M10 Z 5 VSS VSS N L=1.8e-07 W=1e-06 $X=7660 $Y=345 $D=0
M11 VSS 5 Z VSS N L=1.8e-07 W=1e-06 $X=8380 $Y=345 $D=0
M12 Z 5 VSS VSS N L=1.8e-07 W=1e-06 $X=9120 $Y=345 $D=0
M13 VSS 5 Z VSS N L=1.8e-07 W=1e-06 $X=9840 $Y=345 $D=0
M14 5 I VDD VDD P L=1.8e-07 W=8.35e-07 $X=460 $Y=2205 $D=16
M15 VDD I 5 VDD P L=1.8e-07 W=1.37e-06 $X=1180 $Y=2205 $D=16
M16 5 I VDD VDD P L=1.8e-07 W=1.37e-06 $X=1900 $Y=2205 $D=16
M17 VDD I 5 VDD P L=1.8e-07 W=1.37e-06 $X=2620 $Y=2205 $D=16
M18 Z 5 VDD VDD P L=1.8e-07 W=1.37e-06 $X=3340 $Y=2205 $D=16
M19 VDD 5 Z VDD P L=1.8e-07 W=1.37e-06 $X=4060 $Y=2205 $D=16
M20 Z 5 VDD VDD P L=1.8e-07 W=1.37e-06 $X=4780 $Y=2205 $D=16
M21 VDD 5 Z VDD P L=1.8e-07 W=1.37e-06 $X=5500 $Y=2205 $D=16
M22 Z 5 VDD VDD P L=1.8e-07 W=1.37e-06 $X=6220 $Y=2205 $D=16
M23 VDD 5 Z VDD P L=1.8e-07 W=1.37e-06 $X=6940 $Y=2205 $D=16
M24 Z 5 VDD VDD P L=1.8e-07 W=1.37e-06 $X=7660 $Y=2205 $D=16
M25 VDD 5 Z VDD P L=1.8e-07 W=1.37e-06 $X=8380 $Y=2205 $D=16
M26 Z 5 VDD VDD P L=1.8e-07 W=1.37e-06 $X=9120 $Y=2205 $D=16
M27 VDD 5 Z VDD P L=1.8e-07 W=1.37e-06 $X=9840 $Y=2205 $D=16
.ENDS
***************************************
.SUBCKT BUFFD2BWP7T I Z VSS VDD
** N=5 EP=4 IP=0 FDC=6
M0 VSS I 5 VSS N L=1.8e-07 W=1e-06 $X=680 $Y=345 $D=0
M1 Z 5 VSS VSS N L=1.8e-07 W=1e-06 $X=1590 $Y=345 $D=0
M2 VSS 5 Z VSS N L=1.8e-07 W=1e-06 $X=2430 $Y=345 $D=0
M3 VDD I 5 VDD P L=1.8e-07 W=1.37e-06 $X=680 $Y=2205 $D=16
M4 Z 5 VDD VDD P L=1.8e-07 W=1.37e-06 $X=1590 $Y=2205 $D=16
M5 VDD 5 Z VDD P L=1.8e-07 W=1.37e-06 $X=2430 $Y=2205 $D=16
.ENDS
***************************************
.SUBCKT DFCNQD2BWP7T CP D CDN Q VSS VDD
** N=19 EP=6 IP=0 FDC=30
M0 VSS CP 7 VSS N L=1.8e-07 W=5e-07 $X=640 $Y=840 $D=0
M1 8 7 VSS VSS N L=1.8e-07 W=5e-07 $X=1240 $Y=840 $D=0
M2 15 7 VSS VSS N L=1.8e-07 W=9.4e-07 $X=2660 $Y=405 $D=0
M3 10 D 15 VSS N L=1.8e-07 W=9.4e-07 $X=3160 $Y=405 $D=0
M4 16 8 10 VSS N L=1.8e-07 W=4.2e-07 $X=4005 $Y=895 $D=0
M5 17 CDN 16 VSS N L=1.8e-07 W=4.2e-07 $X=4435 $Y=895 $D=0
M6 VSS 11 17 VSS N L=1.8e-07 W=4.2e-07 $X=4865 $Y=895 $D=0
M7 11 10 VSS VSS N L=1.8e-07 W=5.4e-07 $X=5715 $Y=775 $D=0
M8 13 8 11 VSS N L=1.8e-07 W=9.1e-07 $X=6435 $Y=405 $D=0
M9 12 7 13 VSS N L=1.8e-07 W=4.2e-07 $X=7200 $Y=895 $D=0
M10 VSS 14 12 VSS N L=1.8e-07 W=4.2e-07 $X=8910 $Y=895 $D=0
M11 18 CDN VSS VSS N L=1.8e-07 W=9.7e-07 $X=9510 $Y=345 $D=0
M12 14 13 18 VSS N L=1.8e-07 W=9.7e-07 $X=9940 $Y=345 $D=0
M13 Q 14 VSS VSS N L=1.8e-07 W=1e-06 $X=11360 $Y=345 $D=0
M14 VSS 14 Q VSS N L=1.8e-07 W=1e-06 $X=12080 $Y=345 $D=0
M15 VDD CP 7 VDD P L=1.8e-07 W=6.85e-07 $X=620 $Y=2345 $D=16
M16 8 7 VDD VDD P L=1.8e-07 W=6.85e-07 $X=1240 $Y=2345 $D=16
M17 19 8 VDD VDD P L=1.8e-07 W=1.37e-06 $X=2525 $Y=2205 $D=16
M18 10 D 19 VDD P L=1.8e-07 W=1.37e-06 $X=2955 $Y=2205 $D=16
M19 9 7 10 VDD P L=1.8e-07 W=4.2e-07 $X=3795 $Y=2365 $D=16
M20 VDD CDN 9 VDD P L=1.8e-07 W=4.2e-07 $X=4515 $Y=2365 $D=16
M21 9 11 VDD VDD P L=1.8e-07 W=4.2e-07 $X=5115 $Y=2365 $D=16
M22 11 10 VDD VDD P L=1.8e-07 W=6.2e-07 $X=6375 $Y=2175 $D=16
M23 13 7 11 VDD P L=1.8e-07 W=6.2e-07 $X=7300 $Y=2175 $D=16
M24 12 8 13 VDD P L=1.8e-07 W=4.2e-07 $X=8115 $Y=2175 $D=16
M25 VDD 14 12 VDD P L=1.8e-07 W=4.2e-07 $X=8895 $Y=2175 $D=16
M26 14 CDN VDD VDD P L=1.8e-07 W=4.2e-07 $X=9850 $Y=3095 $D=16
M27 VDD 13 14 VDD P L=1.8e-07 W=1.37e-06 $X=10630 $Y=2205 $D=16
M28 Q 14 VDD VDD P L=1.8e-07 W=1.37e-06 $X=11360 $Y=2205 $D=16
M29 VDD 14 Q VDD P L=1.8e-07 W=1.37e-06 $X=12080 $Y=2205 $D=16
.ENDS
***************************************
.SUBCKT DCAP16BWP7T VSS VDD
** N=4 EP=2 IP=0 FDC=12
M0 VSS 4 VSS VSS N L=9.65e-07 W=9.4e-07 $X=620 $Y=405 $D=0
M1 VSS 4 VSS VSS N L=9.65e-07 W=9.4e-07 $X=2125 $Y=405 $D=0
M2 VSS 4 VSS VSS N L=9.65e-07 W=9.4e-07 $X=3630 $Y=405 $D=0
M3 VSS 4 VSS VSS N L=9.65e-07 W=9.4e-07 $X=5135 $Y=405 $D=0
M4 VSS 4 VSS VSS N L=9.65e-07 W=9.4e-07 $X=6640 $Y=405 $D=0
M5 3 4 VSS VSS N L=1.8e-07 W=9.4e-07 $X=8160 $Y=405 $D=0
M6 VDD 3 VDD VDD P L=9.65e-07 W=1.31e-06 $X=620 $Y=2205 $D=16
M7 VDD 3 VDD VDD P L=9.65e-07 W=1.31e-06 $X=2125 $Y=2205 $D=16
M8 VDD 3 VDD VDD P L=9.65e-07 W=1.31e-06 $X=3630 $Y=2205 $D=16
M9 VDD 3 VDD VDD P L=9.65e-07 W=1.31e-06 $X=5135 $Y=2205 $D=16
M10 VDD 3 VDD VDD P L=9.65e-07 W=1.095e-06 $X=6640 $Y=2420 $D=16
M11 4 3 VDD VDD P L=1.8e-07 W=1.095e-06 $X=8160 $Y=2420 $D=16
.ENDS
***************************************
.SUBCKT CKND1BWP7T I VSS VDD ZN
** N=4 EP=4 IP=0 FDC=2
M0 ZN I VSS VSS N L=1.8e-07 W=5.25e-07 $X=830 $Y=440 $D=0
M1 ZN I VDD VDD P L=1.8e-07 W=1.37e-06 $X=830 $Y=2205 $D=16
.ENDS
***************************************
.SUBCKT INVD4BWP7T I ZN VSS VDD
** N=4 EP=4 IP=0 FDC=8
M0 ZN I VSS VSS N L=1.8e-07 W=1e-06 $X=765 $Y=345 $D=0
M1 VSS I ZN VSS N L=1.8e-07 W=1e-06 $X=1485 $Y=345 $D=0
M2 ZN I VSS VSS N L=1.8e-07 W=1e-06 $X=2275 $Y=345 $D=0
M3 VSS I ZN VSS N L=1.8e-07 W=1e-06 $X=2995 $Y=345 $D=0
M4 ZN I VDD VDD P L=1.8e-07 W=1.37e-06 $X=765 $Y=2205 $D=16
M5 VDD I ZN VDD P L=1.8e-07 W=1.37e-06 $X=1485 $Y=2205 $D=16
M6 ZN I VDD VDD P L=1.8e-07 W=1.37e-06 $X=2275 $Y=2205 $D=16
M7 VDD I ZN VDD P L=1.8e-07 W=1.37e-06 $X=2995 $Y=2205 $D=16
.ENDS
***************************************
.SUBCKT BUFFD3BWP7T I VSS VDD Z
** N=5 EP=4 IP=0 FDC=8
M0 VSS I 5 VSS N L=1.8e-07 W=1e-06 $X=680 $Y=345 $D=0