$ Spice netlist generated by v2lvs
$ v2013.2_18.13    Thu May 16 11:29:55 PDT 2013

.SUBCKT clefia_sbox1_0 sout<7> sout<6> sout<5> sout<4> sout<3> sout<2> sout<1> 
+ sout<0> sin<7> sin<6> sin<5> sin<4> sin<3> sin<2> sin<1> sin<0> VDD VSS 
Xicc_route_opt3 CKBD1BWP7T $PINS VSS=VSS VDD=VDD I=n340 Z=n257 
XU33 ND2D2BWP7T $PINS VSS=VSS VDD=VDD A1=n295 ZN=n297 A2=n17 
XU352 INR4D1BWP7T $PINS VSS=VSS VDD=VDD A1=n289 B1=n203 B2=n355 B3=n319 ZN=n290 
XU179 NR4D1BWP7T $PINS VSS=VSS VDD=VDD ZN=n34 A1=n242 A2=n87 A4=n322 A3=n191 
XU156 NR4D0BWP7T $PINS VSS=VSS A4=n122 VDD=VDD ZN=n24 A3=n179 A2=n322 A1=n312 
XU160 OAI31D1BWP7T $PINS B=n294 A3=n25 ZN=n38 A2=n26 VDD=VDD A1=n153 VSS=VSS 
XU19 NR2D4BWP7T $PINS VSS=VSS VDD=VDD A1=n30 ZN=n153 A2=n44 
XU268 AOI32D1BWP7T $PINS B2=n111 B1=n362 ZN=sout<0> A1=n246 A2=n111 VDD=VDD 
+ A3=n244 VSS=VSS 
XU63 ND2D2BWP7T $PINS VSS=VSS VDD=VDD A1=n61 ZN=n263 A2=n41 
XU319 AOI21D1BWP7T $PINS VSS=VSS A2=n200 VDD=VDD A1=n294 B=n199 ZN=n210 
Xicc_place15 INVD1P5BWP7T $PINS VDD=VDD VSS=VSS I=n78 ZN=n130 
XU299 ND4D2BWP7T $PINS VSS=VSS VDD=VDD A2=n160 ZN=n253 A1=n314 A3=n190 A4=n287 
XU199 OAI31D1BWP7T $PINS B=n346 A3=n47 ZN=n69 A2=n359 VDD=VDD A1=n48 VSS=VSS 
XU198 ND4D0BWP7T $PINS VSS=VSS VDD=VDD A2=n264 ZN=n47 A1=n79 A3=n46 A4=n105 
XU221 NR4D1BWP7T $PINS VSS=VSS A4=n338 VDD=VDD ZN=n56 A3=n116 A2=n203 A1=n142 
XU98 INVD2BWP7T $PINS VDD=VDD VSS=VSS I=n332 ZN=n142 
XU280 ND4D1BWP7T $PINS VSS=VSS VDD=VDD A2=n128 ZN=n129 A1=n205 A3=n230 A4=n313 
XU398 OAI211D1BWP7T $PINS A2=n260 ZN=n416 A1=n143 B=n202 VDD=VDD C=n161 VSS=VSS 
XU220 ND4D2BWP7T $PINS VSS=VSS VDD=VDD A2=n113 ZN=n338 A1=n55 A3=n227 A4=n163 
XU334 AOI31D2BWP7T $PINS B=n362 ZN=n251 A1=n238 A2=n237 VDD=VDD A3=n236 VSS=VSS 
XU323 OAI211D1BWP7T $PINS A2=n18 ZN=sout<2> A1=n211 B=n210 VDD=VDD C=n209 
+ VSS=VSS 
XU328 NR4D1BWP7T $PINS VSS=VSS A4=n216 VDD=VDD ZN=n220 A3=n217 A2=n218 A1=n219 
XU16 ND2D1P5BWP7T $PINS VSS=VSS VDD=VDD A1=sin<1> ZN=n145 A2=sin<2> 
XU14 ND2D1BWP7T $PINS VSS=VSS VDD=VDD A1=n132 ZN=n300 A2=n66 
XU12 ND2D1BWP7T $PINS VSS=VSS VDD=VDD A1=sin<3> ZN=n261 A2=n286 
XU9 ND2D1BWP7T $PINS VSS=VSS VDD=VDD A1=n13 ZN=n29 A2=n62 
XU7 ND2D1BWP7T $PINS VSS=VSS VDD=VDD A1=n17 ZN=n2 A2=sin<2> 
XU4 ND2D1BWP7T $PINS VSS=VSS VDD=VDD A1=sin<4> ZN=n192 A2=n369 
XU207 INVD1BWP7T $PINS ZN=n214 VSS=VSS VDD=VDD I=n105 
XU204 ND2D1BWP7T $PINS VSS=VSS VDD=VDD A1=n177 ZN=n50 A2=n112 
XU201 IND2D1BWP7T $PINS VSS=VSS VDD=VDD B1=n202 A1=n235 ZN=n124 
XU200 ND2D1BWP7T $PINS VSS=VSS VDD=VDD A1=n232 ZN=n310 A2=n225 
XU197 ND2D1BWP7T $PINS VSS=VSS VDD=VDD A1=n130 ZN=n105 A2=n131 
XU196 AOI211D1BWP7T $PINS VSS=VSS VDD=VDD B=n311 A2=n45 A1=n141 ZN=n46 C=n323 
XU194 NR2XD0BWP7T $PINS VSS=VSS VDD=VDD A1=n297 ZN=n311 A2=n455 
XU193 NR2D1BWP7T $PINS VSS=VSS VDD=VDD A1=sin<0> ZN=n45 A2=n364 
XU191 ND2D1BWP7T $PINS VSS=VSS VDD=VDD A1=n190 ZN=n42 A2=n287 
XU190 IND2D1BWP7T $PINS VSS=VSS VDD=VDD B1=n302 A1=n255 ZN=n43 
XU187 ND2D1BWP7T $PINS VSS=VSS VDD=VDD A1=n66 ZN=n342 A2=n148 
XU185 ND2D1BWP7T $PINS VSS=VSS VDD=VDD A1=n372 ZN=n225 A2=n41 
XU180 ND4D0BWP7T $PINS VSS=VSS VDD=VDD A2=n237 ZN=n36 A1=n82 A3=n34 A4=n314 
XU176 ND4D0BWP7T $PINS VSS=VSS VDD=VDD A2=n212 ZN=n32 A1=n276 A3=n289 A4=n313 
XU175 INR2D1BWP7T $PINS VSS=VSS VDD=VDD B1=n74 ZN=n212 A1=n160 
XU172 ND2D1BWP7T $PINS VSS=VSS VDD=VDD A1=n31 ZN=n202 A2=n148 
XU171 ND3D0BWP7T $PINS VSS=VSS VDD=VDD A2=n385 A1=n81 ZN=n33 A3=n341 
XU164 NR2D1BWP7T $PINS VSS=VSS VDD=VDD A1=n28 ZN=n82 A2=n116 
XU163 ND2D1BWP7T $PINS VSS=VSS VDD=VDD A1=n190 ZN=n116 A2=n327 
XU162 ND2D1BWP7T $PINS VSS=VSS VDD=VDD A1=n141 ZN=n327 A2=n27 
XU161 INVD0BWP7T $PINS ZN=n219 VSS=VSS VDD=VDD I=n163 
XU158 ND2D1BWP7T $PINS VSS=VSS VDD=VDD A1=sin<7> ZN=n362 A2=sin<6> 
XU157 ND3D0BWP7T $PINS VSS=VSS VDD=VDD A2=n52 A1=n164 ZN=n25 A3=n24 
XU155 IND2D1BWP7T $PINS VSS=VSS VDD=VDD B1=n70 A1=n172 ZN=n122 
XU153 NR2D1BWP7T $PINS VSS=VSS VDD=VDD A1=n22 ZN=n52 A2=n318 
XU151 ND2D1BWP7T $PINS VSS=VSS VDD=VDD A1=n62 ZN=n201 A2=n66 
XU150 AOI31D1BWP7T $PINS B=n97 ZN=n20 A1=sin<0> A2=n61 VDD=VDD A3=n17 VSS=VSS 
XU149 ND2D1BWP7T $PINS VSS=VSS VDD=VDD A1=n215 ZN=n97 A2=n81 
XU148 ND2D1BWP7T $PINS VSS=VSS VDD=VDD A1=n76 ZN=n81 A2=n66 
XU146 ND2D1BWP7T $PINS VSS=VSS VDD=VDD A1=n337 ZN=n186 A2=n117 
XU145 ND2D1BWP7T $PINS VSS=VSS VDD=VDD A1=n224 ZN=n170 A2=n352 
XU144 ND2D1BWP7T $PINS VSS=VSS VDD=VDD A1=n141 ZN=n352 A2=n41 
XU143 ND2D1BWP7T $PINS VSS=VSS VDD=VDD A1=n119 ZN=n224 A2=n31 
XU140 ND3D0BWP7T $PINS VSS=VSS VDD=VDD A2=n160 A1=n196 ZN=n26 A3=n49 
XU139 ND2D1BWP7T $PINS VSS=VSS VDD=VDD A1=n61 ZN=n49 A2=n132 
XU135 NR2D1BWP7T $PINS VSS=VSS VDD=VDD A1=n28 ZN=n55 A2=n179 
XU134 INVD0BWP7T $PINS ZN=n28 VSS=VSS VDD=VDD I=n272 
XU130 NR2XD1BWP7T $PINS VSS=VSS VDD=VDD A1=n44 ZN=n242 A2=n143 
XU129 ND2D1BWP7T $PINS VSS=VSS VDD=VDD A1=n12 ZN=n215 A2=n119 
XU128 ND2D1BWP7T $PINS VSS=VSS VDD=VDD A1=n132 ZN=n113 A2=n12 
XU127 ND2D1BWP7T $PINS VSS=VSS VDD=VDD A1=n70 ZN=n350 A2=n287 
XU126 ND2D1BWP7T $PINS VSS=VSS VDD=VDD A1=n12 ZN=n287 A2=n16 
XU125 ND2D1BWP7T $PINS VSS=VSS VDD=VDD A1=n16 ZN=n70 A2=n141 
XU123 ND2D1BWP7T $PINS VSS=VSS VDD=VDD A1=n132 ZN=n353 A2=n31 
XU120 ND2D1BWP7T $PINS VSS=VSS VDD=VDD A1=n61 ZN=n230 A2=n16 
XU119 ND2D1BWP7T $PINS VSS=VSS VDD=VDD A1=n76 ZN=n232 A2=n61 
XU117 NR3D0BWP7T $PINS VSS=VSS VDD=VDD ZN=n10 A1=n223 A3=n22 A2=n152 
XU116 ND3D0BWP7T $PINS VSS=VSS VDD=VDD A2=n289 A1=n9 ZN=n22 A3=n271 
XU115 ND2D1BWP7T $PINS VSS=VSS VDD=VDD A1=n130 ZN=n271 A2=n66 
XU114 ND2D1BWP7T $PINS VSS=VSS VDD=VDD A1=n76 ZN=n289 A2=n131 
XU113 INR4D0BWP7T $PINS VSS=VSS VDD=VDD A1=n183 B1=n109 B2=n419 B3=n115 ZN=n9 
XU112 IND2D1BWP7T $PINS VSS=VSS VDD=VDD B1=n161 A1=n84 ZN=n115 
XU111 ND2D1BWP7T $PINS VSS=VSS VDD=VDD A1=n61 ZN=n161 A2=n27 
XU108 ND2D1BWP7T $PINS VSS=VSS VDD=VDD A1=n27 ZN=n128 A2=n131 
XU107 ND2D1BWP7T $PINS VSS=VSS VDD=VDD A1=n66 ZN=n226 A2=n27 
XU105 ND2D1BWP7T $PINS VSS=VSS VDD=VDD A1=n12 ZN=n183 A2=n41 
XU103 ND2D1BWP7T $PINS VSS=VSS VDD=VDD A1=n132 ZN=n270 A2=n131 
XU101 ND2D1BWP7T $PINS VSS=VSS VDD=VDD A1=n295 ZN=n112 A2=n85 
XU99 NR3D0BWP7T $PINS VSS=VSS VDD=VDD ZN=n8 A1=n162 A3=n87 A2=n142 
XU97 ND2D1BWP7T $PINS VSS=VSS VDD=VDD A1=n141 ZN=n332 A2=n148 
XU94 ND2D1BWP7T $PINS VSS=VSS VDD=VDD A1=sin<6> ZN=n247 A2=n35 
XU93 INVD0BWP7T $PINS ZN=n35 VSS=VSS VDD=VDD I=sin<7> 
XU92 ND4D0BWP7T $PINS VSS=VSS VDD=VDD A2=n6 ZN=n7 A1=n427 A3=n314 A4=n133 
XU91 ND2D1BWP7T $PINS VSS=VSS VDD=VDD A1=n76 ZN=n133 A2=n31 
XU90 ND2D2BWP7T $PINS VSS=VSS VDD=VDD A1=n27 ZN=n314 A2=n85 
XU88 ND2D1BWP7T $PINS VSS=VSS VDD=VDD A1=n272 ZN=n60 A2=n313 
XU87 ND2D1BWP7T $PINS VSS=VSS VDD=VDD A1=n132 ZN=n313 A2=n141 
XU85 ND2D1BWP7T $PINS VSS=VSS VDD=VDD A1=n178 ZN=n11 A2=n19 
XU84 NR2D1BWP7T $PINS VSS=VSS VDD=VDD A1=sin<4> ZN=n178 A2=n369 
XU83 CKND2D2BWP7T $PINS VSS=VSS VDD=VDD A1=n372 ZN=n272 A2=n16 
XU80 ND2D1BWP7T $PINS VSS=VSS VDD=VDD A1=n12 ZN=n117 A2=n27 
XU79 NR2D1P5BWP7T $PINS VSS=VSS VDD=VDD A1=n30 ZN=n75 A2=n297 
XU76 INVD1BWP7T $PINS VDD=VDD VSS=VSS I=n312 ZN=n328 
XU61 ND2D1BWP7T $PINS VSS=VSS VDD=VDD A1=n104 ZN=n21 A2=n163 
XU60 ND2D1BWP7T $PINS VSS=VSS VDD=VDD A1=n119 ZN=n163 A2=n66 
XU58 ND2D1BWP7T $PINS VSS=VSS VDD=VDD A1=n372 ZN=n104 A2=n130 
XU51 ND2D1BWP7T $PINS VSS=VSS VDD=VDD A1=n16 ZN=n190 A2=n66 
XU47 ND2D1BWP7T $PINS VSS=VSS VDD=VDD A1=sin<3> ZN=n77 A2=sin<4> 
XU46 OAI211D1BWP7T $PINS A2=n29 ZN=n359 A1=n192 B=n4 VDD=VDD C=n150 VSS=VSS 
XU43 ND2D1BWP7T $PINS VSS=VSS VDD=VDD A1=n123 ZN=n3 A2=n337 
XU39 ND2D1BWP7T $PINS VSS=VSS VDD=VDD A1=n31 ZN=n123 A2=n41 
XU36 ND2D1BWP7T $PINS VSS=VSS VDD=VDD A1=n16 ZN=n160 A2=n31 
XU30 NR2D1BWP7T $PINS VSS=VSS VDD=VDD A1=n153 ZN=n72 A2=n162 
XU28 ND2D1BWP7T $PINS VSS=VSS VDD=VDD A1=n61 ZN=n333 A2=n130 
XU25 INVD0BWP7T $PINS ZN=n1 VSS=VSS VDD=VDD I=n260 
XU24 ND2D1BWP7T $PINS VSS=VSS VDD=VDD A1=n364 ZN=n260 A2=sin<1> 
XU216 INVD1BWP7T $PINS ZN=n385 VSS=VSS VDD=VDD I=n171 
XU57 INVD0BWP7T $PINS ZN=n374 VSS=VSS VDD=VDD I=n286 
XU52 INVD1BWP7T $PINS ZN=n372 VSS=VSS VDD=VDD I=n30 
XU22 INVD0BWP7T $PINS ZN=n370 VSS=VSS VDD=VDD I=n348 
XU3 INVD0BWP7T $PINS ZN=n364 VSS=VSS VDD=VDD I=sin<2> 
XU372 OAI31D1BWP7T $PINS VSS=VSS VDD=VDD B=n356 ZN=n360 A3=n357 A2=n358 A1=n397 
XU370 AOI211D1BWP7T $PINS VSS=VSS VDD=VDD B=n350 A2=n351 A1=sin<1> ZN=n354 
+ C=n349 
XU369 AOI22D0BWP7T $PINS B1=n346 A2=n347 ZN=n361 A1=n348 VDD=VDD B2=n345 
+ VSS=VSS 
XU368 ND4D0BWP7T $PINS VSS=VSS VDD=VDD A2=n343 ZN=n345 A1=n344 A3=n342 A4=n341 
XU367 INR4D0BWP7T $PINS VSS=VSS VDD=VDD A1=n257 B1=n358 B2=n339 B3=n338 ZN=n343 
XU365 ND2D1BWP7T $PINS VSS=VSS VDD=VDD A1=n333 ZN=n334 A2=n332 
XU364 ND4D0BWP7T $PINS VSS=VSS VDD=VDD A2=n330 ZN=n347 A1=n228 A3=n329 A4=n328 
XU363 INR4D1BWP7T $PINS VSS=VSS VDD=VDD A1=n327 B1=n326 B2=n417 B3=n324 ZN=n329 
XU362 NR3D0BWP7T $PINS VSS=VSS VDD=VDD ZN=n330 A1=n323 A3=n203 A2=n322 
XU361 NR4D1BWP7T $PINS VSS=VSS A4=n280 VDD=VDD ZN=n363 A3=n318 A2=n319 A1=n320 
XU360 ND4D0BWP7T $PINS VSS=VSS VDD=VDD A2=n315 ZN=n317 A1=n316 A3=n314 A4=n313 
XU359 NR3D0BWP7T $PINS VSS=VSS VDD=VDD ZN=n316 A1=n312 A3=n310 A2=n311 
XU356 ND4D0BWP7T $PINS VSS=VSS VDD=VDD A2=n301 ZN=n303 A1=n302 A3=n300 A4=n389 
XU354 AOI22D1BWP7T $PINS B1=n346 A2=n293 ZN=n307 A1=n294 VDD=VDD B2=n292 
+ VSS=VSS 
XU353 ND4D0BWP7T $PINS VSS=VSS VDD=VDD A2=n257 ZN=n292 A1=n228 A3=n442 A4=n290 
XU351 ND2D1BWP7T $PINS VSS=VSS VDD=VDD A1=n288 ZN=n319 A2=n287 
XU348 IND4D0BWP7T $PINS VSS=VSS A1=n278 VDD=VDD B1=n445 B2=n276 B3=n275 ZN=n293 
XU347 NR2D1BWP7T $PINS VSS=VSS VDD=VDD A1=n229 ZN=n275 A2=n273 
XU344 IND4D0BWP7T $PINS VSS=VSS A1=n265 VDD=VDD B1=n264 B2=n263 B3=n155 ZN=n266 
XU343 OAI211D1BWP7T $PINS A2=n260 ZN=n267 A1=n261 B=n259 VDD=VDD C=n327 VSS=VSS 
XU337 NR2D1BWP7T $PINS VSS=VSS VDD=VDD A1=n253 ZN=n301 A2=n338 
XU331 ND2D1BWP7T $PINS VSS=VSS VDD=VDD A1=n131 ZN=n231 A2=n41 
XU329 ND4D0BWP7T $PINS VSS=VSS VDD=VDD A2=n222 ZN=n252 A1=n277 A3=n221 A4=n274 
XU326 ND2D1BWP7T $PINS VSS=VSS VDD=VDD A1=n225 ZN=n217 A2=n224 
XU325 NR4D0BWP7T $PINS VSS=VSS A4=n279 VDD=VDD ZN=n221 A3=n223 A2=n213 A1=n214 
XU324 INVD1BWP7T $PINS ZN=n279 VSS=VSS VDD=VDD I=n212 
XU315 ND4D1BWP7T $PINS VSS=VSS VDD=VDD A2=n190 ZN=n195 A1=n271 A3=n342 A4=n385 
XU313 ND3D1BWP7T $PINS VSS=VSS VDD=VDD A2=n314 A1=n184 ZN=n185 A3=n183 
XU312 ND4D0BWP7T $PINS VSS=VSS VDD=VDD A2=n427 ZN=n200 A1=n228 A3=n258 A4=n181 
XU310 ND2D1BWP7T $PINS VSS=VSS VDD=VDD A1=n388 ZN=n283 A2=n175 
XU307 ND2D1BWP7T $PINS VSS=VSS VDD=VDD A1=n300 ZN=n176 A2=n289 
XU296 OAI211D1BWP7T $PINS A2=n374 ZN=n156 A1=n88 B=n184 VDD=VDD C=n154 VSS=VSS 
XU295 NR4D0BWP7T $PINS VSS=VSS A4=n151 VDD=VDD ZN=n154 A3=n191 A2=n245 A1=n153 
XU293 ND2D1BWP7T $PINS VSS=VSS VDD=VDD A1=n150 ZN=n265 A2=n230 
XU291 ND2D1BWP7T $PINS VSS=VSS VDD=VDD A1=n149 ZN=n339 A2=n155 
XU290 AOI211XD0BWP7T $PINS VSS=VSS VDD=VDD B=n147 A2=n37 A1=n66 ZN=n149 C=n146 
XU288 ND2D1BWP7T $PINS VSS=VSS VDD=VDD A1=n144 ZN=n320 A2=n177 
XU287 NR4D0BWP7T $PINS VSS=VSS A4=n278 VDD=VDD ZN=n144 A3=n140 A2=n152 A1=n142 
XU286 AOI21D0BWP7T $PINS VSS=VSS A2=n139 VDD=VDD A1=n346 B=n138 ZN=n158 
XU285 AOI31D0BWP7T $PINS B=n370 ZN=n138 A1=n308 A2=n246 VDD=VDD A3=n136 VSS=VSS 
XU283 ND4D1BWP7T $PINS VSS=VSS VDD=VDD A2=n272 ZN=n134 A1=n256 A3=n133 A4=n353 
XU279 IND4D0BWP7T $PINS VSS=VSS A1=n127 VDD=VDD B1=n189 B2=n204 B3=n126 ZN=n139 
XU278 NR4D0BWP7T $PINS VSS=VSS A4=n124 VDD=VDD ZN=n126 A3=n125 A2=n336 A1=n213 
XU277 ND4D0BWP7T $PINS VSS=VSS VDD=VDD A2=n160 ZN=n125 A1=n123 A3=n173 A4=n337 
XU276 INVD0BWP7T $PINS ZN=n173 VSS=VSS VDD=VDD I=n311 
XU275 INVD0BWP7T $PINS ZN=n336 VSS=VSS VDD=VDD I=n352 
XU272 AOI211D1BWP7T $PINS VSS=VSS VDD=VDD B=n203 A2=n119 A1=n131 ZN=n120 C=n358 
XU270 NR4D1BWP7T $PINS VSS=VSS A4=n115 VDD=VDD ZN=n118 A3=n116 A2=n151 A1=n206 
XU267 NR4D0BWP7T $PINS VSS=VSS A4=n108 VDD=VDD ZN=n110 A3=n429 A2=n335 A1=n109 
XU266 ND4D1BWP7T $PINS VSS=VSS VDD=VDD A2=n114 ZN=n108 A1=n248 A3=n224 A4=n270 
XU264 ND2D1BWP7T $PINS VSS=VSS VDD=VDD A1=n104 ZN=n335 A2=n328 
XU263 AOI211XD1BWP7T $PINS VSS=VSS VDD=VDD B=n239 A2=n103 A1=n356 ZN=n111 
+ C=n299 
XU262 AOI31D0BWP7T $PINS B=n247 ZN=n101 A1=n248 A2=n100 VDD=VDD A3=n99 VSS=VSS 
XU261 NR4D0BWP7T $PINS VSS=VSS A4=n255 VDD=VDD ZN=n99 A3=n98 A2=n194 A1=n214 
XU256 AOI31D1BWP7T $PINS B=n370 ZN=n102 A1=n92 A2=n165 VDD=VDD A3=n91 VSS=VSS 
XU254 NR4D0BWP7T $PINS VSS=VSS A4=n89 VDD=VDD ZN=n91 A3=n90 A2=n146 A1=n229 
XU253 ND4D0BWP7T $PINS VSS=VSS VDD=VDD A2=n263 ZN=n89 A1=n272 A3=n177 A4=n183 
XU250 ND2D1BWP7T $PINS VSS=VSS VDD=VDD A1=n166 ZN=n206 A2=n314 
XU249 NR2D1BWP7T $PINS VSS=VSS VDD=VDD A1=n87 ZN=n166 A2=n180 
XU248 ND4D2BWP7T $PINS VSS=VSS VDD=VDD A2=n86 ZN=n103 A1=n189 A3=n385 A4=n259 
XU247 ND2D1BWP7T $PINS VSS=VSS VDD=VDD A1=n132 ZN=n259 A2=n286 
XU245 ND4D0BWP7T $PINS VSS=VSS VDD=VDD A2=n121 ZN=n83 A1=n165 A3=n82 A4=n337 
XU239 ND2D1BWP7T $PINS VSS=VSS VDD=VDD A1=n76 ZN=n315 A2=n141 
XU234 ND4D0BWP7T $PINS VSS=VSS VDD=VDD A2=n72 ZN=n73 A1=n238 A3=n215 A4=n389 
XU232 ND3D0BWP7T $PINS VSS=VSS VDD=VDD A2=n300 A1=n113 ZN=n71 A3=n388 
XU231 INVD0BWP7T $PINS ZN=n94 VSS=VSS VDD=VDD I=n70 
XU228 IND4D0BWP7T $PINS VSS=VSS A1=n278 VDD=VDD B1=n204 B2=n198 B3=n63 ZN=n64 
XU224 ND4D0BWP7T $PINS VSS=VSS VDD=VDD A2=n212 ZN=n65 A1=n79 A3=n388 A4=n314 
XU222 ND3D1BWP7T $PINS VSS=VSS VDD=VDD A2=n57 A1=n107 ZN=n58 A3=n56 
XU217 NR4D0BWP7T $PINS VSS=VSS A4=n115 VDD=VDD ZN=n57 A3=n122 A2=n90 A1=n382 
XU213 ND2D1BWP7T $PINS VSS=VSS VDD=VDD A1=n225 ZN=n151 A2=n289 
XU210 NR3D0BWP7T $PINS VSS=VSS VDD=VDD ZN=n51 A1=n162 A3=n59 A2=n214 
XU209 ND3D1BWP7T $PINS VSS=VSS VDD=VDD A2=n314 A1=n388 ZN=n59 A3=n337 
XU136 IND3D2BWP7T $PINS VSS=VSS VDD=VDD B1=n198 ZN=n15 A1=n169 B2=n55 
XU174 AOI31D2BWP7T $PINS B=n90 A1=sin<2> ZN=n276 A2=n31 VDD=VDD A3=n13 VSS=VSS 
XU106 ND3D0BWP7T $PINS VSS=VSS VDD=VDD ZN=n109 A1=n263 A2=n133 A3=n390 
XU50 OAI21D2BWP7T $PINS A2=n85 A1=n131 ZN=n205 VDD=VDD B=n148 VSS=VSS 
XU243 INVD1BWP7T $PINS VDD=VDD VSS=VSS I=n81 ZN=n188 
XU66 NR2D2BWP7T $PINS VSS=VSS VDD=VDD A1=n78 ZN=n245 A2=n143 
XU165 NR2D3BWP7T $PINS VSS=VSS VDD=VDD A1=n30 ZN=n180 A2=n88 
XU169 INVD0BWP7T $PINS ZN=n382 VSS=VSS VDD=VDD I=n224 
XU404 INVD0BWP7T $PINS ZN=n423 VSS=VSS VDD=VDD I=n424 
XU265 INVD0BWP7T $PINS ZN=n421 VSS=VSS VDD=VDD I=n437 
XU188 ND3D2BWP7T $PINS VSS=VSS VDD=VDD ZN=n255 A1=n183 A2=n49 A3=n342 
XU303 INVD1BWP7T $PINS VDD=VDD VSS=VSS I=n326 ZN=n389 
XU109 OAI211D2BWP7T $PINS A2=n455 ZN=n254 A1=n456 B=n226 VDD=VDD C=n128 VSS=VSS 
XU95 INVD1BWP7T $PINS VDD=VDD VSS=VSS I=n247 ZN=n346 
XU118 ND3D1BWP7T $PINS VSS=VSS VDD=VDD ZN=n304 A1=n10 A2=n150 A3=n313 
XU320 ND4D0BWP7T $PINS VSS=VSS VDD=VDD A2=n202 ZN=n208 A1=n196 A3=n342 A4=n201 
XU205 ND3D1BWP7T $PINS VSS=VSS VDD=VDD ZN=n355 A1=n332 A2=n389 A3=n49 
XU132 ND4D1BWP7T $PINS VSS=VSS VDD=VDD A2=n215 ZN=n14 A1=n113 A3=n104 A4=n196 
XU257 INVD1BWP7T $PINS VDD=VDD VSS=VSS I=n161 ZN=n241 
XU202 NR2XD1BWP7T $PINS VSS=VSS VDD=VDD A1=n77 ZN=n269 A2=n88 
XU142 NR2XD2BWP7T $PINS VSS=VSS VDD=VDD A1=n375 ZN=n171 A2=n95 
XU32 NR2XD1BWP7T $PINS VSS=VSS VDD=VDD A1=sin<2> ZN=n295 A2=n13 
XU40 ND2D2BWP7T $PINS VSS=VSS VDD=VDD A1=n19 ZN=n106 A2=n286 
XU273 ND4D1BWP7T $PINS VSS=VSS VDD=VDD A3=n390 A2=n120 ZN=n127 A1=n121 A4=n287 
XU301 ND4D1BWP7T $PINS VSS=VSS VDD=VDD A2=n165 ZN=n167 A1=n166 A3=n164 A4=n163 
XU284 NR4D1BWP7T $PINS VSS=VSS A4=n134 VDD=VDD ZN=n136 A3=n135 A2=n255 A1=n180 
XU102 ND4D2BWP7T $PINS VSS=VSS VDD=VDD A3=n155 A2=n123 ZN=n324 A1=n8 A4=n112 
XU68 ND4D1BWP7T $PINS VSS=VSS VDD=VDD A3=n263 A2=n5 ZN=n98 A1=n205 A4=n390 
XU311 NR4D1BWP7T $PINS VSS=VSS VDD=VDD ZN=n181 A1=n180 A2=n223 A4=n283 A3=n188 
XU336 NR4D1BWP7T $PINS VSS=VSS VDD=VDD ZN=n249 A1=n242 A2=n223 A4=n351 A3=n241 
XU89 NR4D1BWP7T $PINS VSS=VSS VDD=VDD ZN=n6 A1=n75 A2=n152 A4=n60 A3=n179 
XU305 NR4D1BWP7T $PINS VSS=VSS VDD=VDD ZN=n174 A1=n172 A2=n171 A4=n169 A3=n170 
XU173 OAI21D2BWP7T $PINS A2=n88 A1=n106 ZN=n90 VDD=VDD B=n202 VSS=VSS 
XU133 NR4D3BWP7T $PINS VSS=VSS VDD=VDD ZN=n198 A1=n282 A2=n203 A4=n14 A3=n350 
XU168 IND4D1BWP7T $PINS VSS=VSS A1=n218 VDD=VDD B1=n333 B2=n389 ZN=n140 B3=n183 
XU189 INVD1BWP7T $PINS VDD=VDD VSS=VSS I=n170 ZN=n302 
XU170 ND3D1BWP7T $PINS VSS=VSS VDD=VDD A2=n130 A1=sin<3> ZN=n341 A3=n369 
XU56 NR2XD1BWP7T $PINS VSS=VSS VDD=VDD A1=n30 ZN=n74 A2=n95 
XU110 NR2D2BWP7T $PINS VSS=VSS VDD=VDD A1=n11 ZN=n84 A2=n88 
XU37 OAI21D2BWP7T $PINS A2=n23 A1=n297 ZN=n146 VDD=VDD B=n160 VSS=VSS 
XU238 INVD1BWP7T $PINS VDD=VDD VSS=VSS I=n226 ZN=n213 
XU292 INVD1BWP7T $PINS VDD=VDD VSS=VSS I=n147 ZN=n388 
XU73 NR2XD1BWP7T $PINS VSS=VSS VDD=VDD A1=n44 ZN=n218 A2=n106 
XU59 NR2D2P5BWP7T $PINS VSS=VSS VDD=VDD A1=n13 ZN=n119 A2=n260 
XU54 NR2D3BWP7T $PINS VSS=VSS VDD=VDD A1=n13 ZN=n27 A2=n145 
XU42 ND2D2BWP7T $PINS VSS=VSS VDD=VDD A1=n41 ZN=n337 A2=n85 
XU8 INVD1BWP7T $PINS VDD=VDD VSS=VSS I=n2 ZN=n62 
XU20 INVD1BWP7T $PINS VDD=VDD VSS=VSS I=sin<5> ZN=n369 
XU15 ND3D3BWP7T $PINS A1=sin<5> VSS=VSS VDD=VDD A3=sin<4> A2=sin<3> ZN=n30 
XU401 OAI211D1BWP7T $PINS A2=n455 ZN=n419 A1=n456 B=n226 VDD=VDD C=n128 VSS=VSS 
XU397 OAI211D0BWP7T $PINS A2=n29 ZN=n415 A1=n192 B=n4 VDD=VDD C=n150 VSS=VSS 
XU379 OAI211D1BWP7T $PINS A2=n29 ZN=n397 A1=n192 B=n4 VDD=VDD C=n150 VSS=VSS 
XU214 ND4D0BWP7T $PINS VSS=VSS VDD=VDD A2=n123 ZN=n54 A1=n196 A3=n232 A4=n271 
XU366 INR4D1BWP7T $PINS VSS=VSS VDD=VDD A1=n337 B1=n336 B2=n335 B3=n334 ZN=n344 
XU154 NR2D3BWP7T $PINS VSS=VSS VDD=VDD A1=n23 ZN=n172 A2=n88 
XU314 NR4D2BWP7T $PINS VSS=VSS VDD=VDD ZN=n277 A1=n188 A2=n187 A4=n185 A3=n186 
XU327 ND4D0BWP7T $PINS VSS=VSS VDD=VDD A2=n155 ZN=n216 A1=n215 A3=n287 A4=n175 
XU330 ND4D0BWP7T $PINS VSS=VSS VDD=VDD A2=n225 ZN=n233 A1=n226 A3=n224 A4=n390 
XU332 ND4D1BWP7T $PINS VSS=VSS VDD=VDD A2=n231 ZN=n349 A1=n232 A3=n230 A4=n175 
XU237 NR2XD0BWP7T $PINS VSS=VSS VDD=VDD A1=n75 ZN=n114 A2=n234 
XU141 CKAN2D2BWP7T $PINS VSS=VSS VDD=VDD Z=n235 A2=n131 A1=n16 
XU65 INVD1BWP7T $PINS ZN=n375 VSS=VSS VDD=VDD I=n31 
XU26 ND2D1P5BWP7T $PINS VSS=VSS VDD=VDD A1=n13 ZN=n78 A2=n1 
XU297 OAI31D1BWP7T $PINS B=n356 A3=n156 ZN=n157 A2=n339 VDD=VDD A1=n320 VSS=VSS 
XU321 IIND4D1BWP7T $PINS VSS=VSS A1=n206 VDD=VDD ZN=n207 B1=n205 B2=n204 
+ A2=n350 
XU371 IND4D1BWP7T $PINS VSS=VSS A1=n355 VDD=VDD B1=n354 B2=n353 B3=n352 ZN=n357 
XU233 NR3D1BWP7T $PINS VSS=VSS VDD=VDD ZN=n238 A1=n94 A3=n71 A2=n84 
XU346 ND4D0BWP7T $PINS VSS=VSS VDD=VDD A2=n272 ZN=n273 A1=n315 A3=n271 A4=n270 
XU184 ND4D1BWP7T $PINS VSS=VSS VDD=VDD A2=n215 ZN=n48 A1=n70 A3=n289 A4=n112 
XU304 INVD1BWP7T $PINS VDD=VDD VSS=VSS I=n245 ZN=n390 
XU355 MOAI22D0BWP7T $PINS A2=n297 A1=n374 ZN=n305 B1=n61 VSS=VSS B2=n295 
+ VDD=VDD 
XU53 NR2XD1BWP7T $PINS VSS=VSS VDD=VDD A1=n78 ZN=n147 A2=n375 
XU64 NR2D3BWP7T $PINS VSS=VSS VDD=VDD A1=sin<3> ZN=n12 A2=n192 
XU34 NR2D3BWP7T $PINS VSS=VSS VDD=VDD A1=n13 ZN=n16 A2=n2 
XU17 NR2D3BWP7T $PINS VSS=VSS VDD=VDD A1=n145 ZN=n76 A2=sin<0> 
XU11 NR2XD1BWP7T $PINS VSS=VSS VDD=VDD A1=sin<5> ZN=n286 A2=sin<4> 
XU48 OR4D0BWP7T $PINS VSS=VSS VDD=VDD A4=n243 A3=n446 A2=n245 A1=n162 Z=n424 
XU38 OR4D0BWP7T $PINS VSS=VSS VDD=VDD A4=n253 A3=n254 A2=n255 A1=n335 Z=n444 
XU35 AOI211XD0BWP7T $PINS A1=n37 ZN=n442 A2=n141 B=n416 VDD=VDD C=n279 VSS=VSS 
XU339 AOI31D1BWP7T $PINS B=n247 ZN=n250 A1=n249 A2=n301 VDD=VDD A3=n423 VSS=VSS 
XU408 BUFFD1BWP7T $PINS VSS=VSS VDD=VDD Z=n427 I=n256 
XU241 ND4D0BWP7T $PINS VSS=VSS VDD=VDD A2=n123 ZN=n80 A1=n79 A3=n150 A4=n128 
XU306 ND4D1BWP7T $PINS VSS=VSS VDD=VDD A2=n174 ZN=n243 A1=n189 A3=n263 A4=n173 
XU96 OAI31D1BWP7T $PINS B=n346 A3=n7 ZN=n40 A2=n98 VDD=VDD A1=n415 VSS=VSS 
XU137 NR2XD1BWP7T $PINS VSS=VSS VDD=VDD A1=sin<7> ZN=n348 A2=sin<6> 
XU45 ND2D1P5BWP7T $PINS VSS=VSS A2=n85 VDD=VDD A1=n16 ZN=n150 
XU240 OAI211D1BWP7T $PINS VSS=VSS C=n315 VDD=VDD A2=n77 ZN=n325 A1=n78 B=n196 
XU399 OAI211D1BWP7T $PINS VSS=VSS C=n315 VDD=VDD A2=n77 ZN=n417 A1=n78 B=n196 
XU152 IND3D1BWP7T $PINS ZN=n318 B2=n201 B1=n20 VDD=VDD A1=n21 VSS=VSS 
XU350 AOI211XD0BWP7T $PINS A1=n286 ZN=n288 A2=n130 B=n223 VDD=VDD C=n283 
+ VSS=VSS 
XU121 OAI211D2BWP7T $PINS VSS=VSS C=n230 VDD=VDD A2=n30 ZN=n169 A1=n145 B=n232 
XU386 CKBD1BWP7T $PINS VSS=VSS VDD=VDD I=n277 Z=n445 
XU383 INVD0BWP7T $PINS ZN=n443 VSS=VSS VDD=VDD I=n444 
XU380 INVD0BWP7T $PINS ZN=n441 VSS=VSS VDD=VDD I=n252 
XU378 INVD0BWP7T $PINS ZN=n440 VSS=VSS VDD=VDD I=n441 
XU376 INVD0BWP7T $PINS ZN=n439 VSS=VSS VDD=VDD I=n436 
XU375 OAI31D1BWP7T $PINS VSS=VSS VDD=VDD B=n105 ZN=n446 A3=n106 A2=sin<2> 
+ A1=sin<0> 
XU349 OA31D0BWP7T $PINS Z=n437 B=n356 A3=n36 A2=n219 A1=n282 VDD=VDD VSS=VSS 
XU229 OA31D0BWP7T $PINS Z=n436 B=n356 A3=n64 A2=n115 A1=n65 VDD=VDD VSS=VSS 
XU259 ND4D2BWP7T $PINS VSS=VSS VDD=VDD A3=n227 A2=n272 ZN=n268 A1=n96 A4=n337 
XU21 ND3D2BWP7T $PINS A1=sin<5> VSS=VSS VDD=VDD A3=n19 A2=sin<4> ZN=n23 
XU195 INVD0BWP7T $PINS ZN=n323 VSS=VSS VDD=VDD I=n133 
XU218 NR2XD1BWP7T $PINS VSS=VSS VDD=VDD A1=n143 ZN=n234 A2=n297 
XU31 INVD2BWP7T $PINS ZN=n194 VSS=VSS VDD=VDD I=n72 
XU258 NR4D1BWP7T $PINS VSS=VSS A4=n152 VDD=VDD ZN=n96 A3=n282 A2=n213 A1=n94 
XU317 NR4D1BWP7T $PINS VSS=VSS A4=n193 VDD=VDD ZN=n197 A3=n194 A2=n195 A1=n269 
XU192 NR4D1BWP7T $PINS VSS=VSS VDD=VDD ZN=n264 A1=n203 A2=n115 A4=n42 A3=n43 
XU159 CKND0BWP7T $PINS ZN=n294 VSS=VSS VDD=VDD I=n362 
XU211 ND4D0BWP7T $PINS VSS=VSS VDD=VDD A2=n52 ZN=n53 A1=n222 A3=n51 A4=n313 
XU373 OAI211D1BWP7T $PINS A2=n362 ZN=sout<6> A1=n363 B=n361 VDD=VDD C=n360 
+ VSS=VSS 
XU223 OAI31D2BWP7T $PINS B=n348 A3=n58 ZN=n67 A2=n255 VDD=VDD A1=n59 VSS=VSS 
XU244 NR4D2BWP7T $PINS VSS=VSS VDD=VDD ZN=n121 A1=n147 A2=n223 A4=n188 A3=n191 
XU302 NR4D1BWP7T $PINS VSS=VSS A4=n167 VDD=VDD ZN=n211 A3=n407 A2=n253 A1=n168 
XU77 OAI21D2BWP7T $PINS VSS=VSS VDD=VDD B=n328 A1=n456 ZN=n187 A2=n455 
XU166 NR2D1BWP7T $PINS VSS=VSS VDD=VDD A1=n30 ZN=n326 A2=n29 
XU75 NR2D1BWP7T $PINS VSS=VSS VDD=VDD A1=n29 ZN=n312 A2=n106 
XU335 NR2D2BWP7T $PINS VSS=VSS VDD=VDD A1=n13 ZN=n351 A2=n455 
XU316 OAI211D1BWP7T $PINS A2=n297 ZN=n193 A1=n192 B=n388 VDD=VDD C=n390 VSS=VSS 
XU282 OAI31D2BWP7T $PINS VSS=VSS VDD=VDD B=n302 ZN=n135 A3=n456 A2=n19 A1=n369 
XU294 NR4D2BWP7T $PINS VSS=VSS A4=n265 VDD=VDD ZN=n184 A3=n241 A2=n235 A1=n172 
XU246 INR4D1BWP7T $PINS VSS=VSS VDD=VDD A1=n114 B1=n84 B2=n219 B3=n83 ZN=n86 
XU251 AOI211XD0BWP7T $PINS VSS=VSS VDD=VDD B=n382 A2=n295 A1=n131 ZN=n92 C=n206 
XU260 INR4D1BWP7T $PINS VSS=VSS VDD=VDD A1=n150 B1=n241 B2=n97 B3=n268 ZN=n100 
XU281 NR3D1BWP7T $PINS VSS=VSS VDD=VDD ZN=n340 A1=n172 A3=n129 A2=n171 
XU333 NR4D1BWP7T $PINS VSS=VSS A4=n349 VDD=VDD ZN=n236 A3=n233 A2=n234 A1=n235 
XU44 INR4D1BWP7T $PINS VSS=VSS VDD=VDD A1=n300 B1=n194 B2=n146 B3=n3 ZN=n4 
XU186 INR2XD1BWP7T $PINS VSS=VSS VDD=VDD B1=n172 ZN=n79 A1=n225 
XU206 NR4D2BWP7T $PINS VSS=VSS A4=n355 VDD=VDD ZN=n222 A3=n50 A2=n269 A1=n171 
XU227 AOI211D2BWP7T $PINS VSS=VSS VDD=VDD B=n142 A2=n131 A1=n62 ZN=n63 C=n180 
XU226 AOI211XD2BWP7T $PINS VSS=VSS VDD=VDD B=n171 A2=n62 A1=n85 ZN=n204 C=n60 
XU225 ND4D1BWP7T $PINS VSS=VSS VDD=VDD A2=n263 ZN=n278 A1=n128 A3=n227 A4=n352 
XU82 NR2XD1BWP7T $PINS VSS=VSS VDD=VDD A1=n261 ZN=n179 A2=n456 
XU69 NR2XD1BWP7T $PINS VSS=VSS VDD=VDD A1=n78 ZN=n87 A2=n106 
XU72 NR2XD1BWP7T $PINS VSS=VSS VDD=VDD A1=n88 ZN=n322 A2=n455 
XU177 NR4D1BWP7T $PINS VSS=VSS A4=n32 VDD=VDD ZN=n237 A3=n33 A2=n140 A1=n180 
XU122 NR2D2BWP7T $PINS VSS=VSS VDD=VDD A1=n78 ZN=n93 A2=n11 
XU147 NR4D2BWP7T $PINS VSS=VSS A4=n186 VDD=VDD ZN=n164 A3=n170 A2=n171 A1=n235 
XU271 ND3D1BWP7T $PINS VSS=VSS VDD=VDD A2=n263 A1=n118 ZN=n358 A3=n117 
XU181 NR2XD1BWP7T $PINS VSS=VSS VDD=VDD A1=sin<6> ZN=n356 A2=n35 
XU322 OAI31D1BWP7T $PINS VSS=VSS VDD=VDD B=n346 ZN=n209 A3=n207 A2=n320 A1=n208 
XU274 NR4D1BWP7T $PINS VSS=VSS A4=n127 VDD=VDD ZN=n159 A3=n168 A2=n122 A1=n254 
XU298 OAI211D1BWP7T $PINS A2=n362 ZN=sout<1> A1=n159 B=n158 VDD=VDD C=n157 
+ VSS=VSS 
XU345 NR4D1BWP7T $PINS VSS=VSS A4=n266 VDD=VDD ZN=n309 A3=n267 A2=n268 A1=n269 
XU358 OAI211D0BWP7T $PINS A2=n18 ZN=sout<4> A1=n309 B=n307 VDD=VDD C=n298 
+ VSS=VSS 
XU342 AOI32D1BWP7T $PINS B2=n291 B1=n18 ZN=sout<3> A1=n258 A2=n291 VDD=VDD 
+ A3=n443 VSS=VSS 
XU212 OAI31D2BWP7T $PINS VSS=VSS VDD=VDD B=n294 ZN=n68 A3=n53 A2=n124 A1=n310 
XU230 ND4D3BWP7T $PINS VSS=VSS VDD=VDD A2=n296 ZN=sout<5> A1=n182 A3=n67 
+ A4=n439 
XU138 OAI31D2BWP7T $PINS VSS=VSS VDD=VDD B=n348 ZN=n39 A3=n15 A2=n304 A1=n324 
XU183 ND4D2BWP7T $PINS VSS=VSS VDD=VDD A2=n39 ZN=sout<7> A1=n240 A3=n137 
+ A4=n421 
XU269 ND4D2BWP7T $PINS VSS=VSS VDD=VDD A2=n113 ZN=n168 A1=n114 A3=n177 A4=n112 
XU393 OR3D2BWP7T $PINS VSS=VSS A3=sin<2> VDD=VDD A2=sin<1> A1=sin<0> Z=n456 
XU391 OR2D2BWP7T $PINS VSS=VSS VDD=VDD Z=n455 A2=n77 A1=sin<5> 
XU389 AN3D2BWP7T $PINS VSS=VSS A1=n454 VDD=VDD A2=sin<3> A3=sin<5> Z=n31 
XU388 INVD0BWP7T $PINS ZN=n454 VSS=VSS VDD=VDD I=sin<4> 
XU387 AO211D0BWP7T $PINS Z=n453 C=n323 B=n326 A2=n61 VDD=VDD A1=n148 VSS=VSS 
XU384 NR4D1BWP7T $PINS VSS=VSS A4=n21 VDD=VDD ZN=n5 A3=n74 A2=n147 A1=n452 
XU382 INVD0BWP7T $PINS ZN=n452 VSS=VSS VDD=VDD I=n190 
XU377 OR4D1BWP7T $PINS VSS=VSS VDD=VDD A4=n80 A3=n325 A2=n213 A1=n451 Z=n450 
XU357 INVD0BWP7T $PINS ZN=n451 VSS=VSS VDD=VDD I=n232 
XU341 CKND1BWP7T $PINS VSS=VSS VDD=VDD ZN=n165 I=n450 
XU340 AO211D0BWP7T $PINS Z=n449 C=n176 B=n243 A2=n148 VDD=VDD A1=n178 VSS=VSS 
XU338 INVD0BWP7T $PINS ZN=n258 VSS=VSS VDD=VDD I=n449 
XU318 OAI211D1BWP7T $PINS VSS=VSS C=n202 VDD=VDD A2=n260 ZN=n407 A1=n143 B=n161 
XU308 NR3D1BWP7T $PINS VSS=VSS VDD=VDD ZN=n107 A1=n151 A3=n54 A2=n235 
XU300 AOI31D0BWP7T $PINS B=n370 ZN=n199 A1=n445 A2=n197 VDD=VDD A3=n198 VSS=VSS 
XU242 OA31D0BWP7T $PINS Z=n448 B=n105 A3=n106 A2=sin<2> A1=sin<0> VDD=VDD 
+ VSS=VSS 
XU236 INVD0BWP7T $PINS ZN=n429 VSS=VSS VDD=VDD I=n448 
Xicc_clock3 BUFFD1BWP7T $PINS VSS=VSS VDD=VDD Z=n137 I=n38 
Xicc_clock4 BUFFD1BWP7T $PINS VSS=VSS VDD=VDD Z=n182 I=n69 
Xicc_clock5 BUFFD1BWP7T $PINS VSS=VSS VDD=VDD Z=n244 I=n110 
Xicc_clock6 NR3D1BWP7T $PINS A3=n73 VSS=VSS VDD=VDD A1=n74 A2=n142 ZN=n246 
Xicc_clock7 CKBD0BWP7T $PINS VSS=VSS VDD=VDD Z=n248 I=n107 
Xicc_clock8 NR4D1BWP7T $PINS VSS=VSS VDD=VDD ZN=n256 A1=n87 A2=n322 A4=n187 
+ A3=n218 
Xicc_place23 INVD1BWP7T $PINS VDD=VDD VSS=VSS I=n333 ZN=n162 
Xicc_place21 INVD1BWP7T $PINS VDD=VDD VSS=VSS I=n117 ZN=n152 
Xicc_place22 INVD1BWP7T $PINS VDD=VDD VSS=VSS I=n75 ZN=n155 
Xicc_place10 INVD2BWP7T $PINS VSS=VSS VDD=VDD I=n23 ZN=n61 
Xicc_place20 INVD1BWP7T $PINS VDD=VDD VSS=VSS I=n297 ZN=n148 
Xicc_place19 INVD1BWP7T $PINS VDD=VDD VSS=VSS I=n12 ZN=n143 
Xicc_place16 INVD2BWP7T $PINS VSS=VSS VDD=VDD I=n455 ZN=n131 
Xicc_place8 INVD2BWP7T $PINS VSS=VSS VDD=VDD I=n456 ZN=n41 
Xicc_place11 INVD2BWP7T $PINS VSS=VSS VDD=VDD I=n261 ZN=n66 
Xicc_place13 INVD2BWP7T $PINS VSS=VSS VDD=VDD I=n119 ZN=n88 
Xicc_place17 INVD2BWP7T $PINS VSS=VSS VDD=VDD I=n29 ZN=n132 
Xicc_place18 INVD2BWP7T $PINS VSS=VSS VDD=VDD I=n11 ZN=n141 
Xicc_place3 INVD2BWP7T $PINS VSS=VSS VDD=VDD I=sin<0> ZN=n13 
Xicc_place6 INVD1BWP7T $PINS VDD=VDD VSS=VSS I=sin<3> ZN=n19 
Xicc_place36 BUFFD1BWP7T $PINS VSS=VSS VDD=VDD Z=n285 I=n251 
Xicc_place37 AOI211D2BWP7T $PINS VSS=VSS VDD=VDD B=n285 A2=n440 A1=n348 ZN=n291 
+ C=n250 
Xicc_place38 BUFFD1BWP7T $PINS VSS=VSS VDD=VDD Z=n296 I=n68 
Xicc_place39 OA31D0BWP7T $PINS Z=n435 B=n348 A3=n303 A2=n304 A1=n305 VDD=VDD 
+ VSS=VSS 
Xicc_place40 INVD0BWP7T $PINS ZN=n298 VSS=VSS VDD=VDD I=n435 
Xicc_place43 BUFFD1BWP7T $PINS VSS=VSS VDD=VDD Z=n299 I=n101 
Xicc_place47 CKBD0BWP7T $PINS VSS=VSS VDD=VDD Z=n308 I=n257 
Xicc_place4 CKND1BWP7T $PINS VSS=VSS VDD=VDD ZN=n17 I=sin<1> 
Xicc_place5 INVD0BWP7T $PINS ZN=n18 VSS=VSS VDD=VDD I=n356 
Xicc_place7 INVD0BWP7T $PINS ZN=n37 VSS=VSS VDD=VDD I=n145 
Xicc_place9 CKND1BWP7T $PINS VSS=VSS VDD=VDD ZN=n44 I=n76 
Xicc_place14 CKND0BWP7T $PINS VSS=VSS VDD=VDD ZN=n95 I=n27 
Xicc_place24 CKND1BWP7T $PINS VSS=VSS VDD=VDD ZN=n175 I=n179 
Xicc_place25 CKND1BWP7T $PINS VSS=VSS VDD=VDD ZN=n177 I=n93 
Xicc_place31 CKND1BWP7T $PINS VSS=VSS VDD=VDD ZN=n227 I=n234 
Xicc_place32 CKND0BWP7T $PINS VSS=VSS VDD=VDD ZN=n228 I=n268 
Xicc_place33 INVD0BWP7T $PINS ZN=n229 VSS=VSS VDD=VDD I=n246 
Xicc_place12 INVD2BWP7T $PINS VSS=VSS VDD=VDD I=n106 ZN=n85 
Xicc_place34 BUFFD1BWP7T $PINS VSS=VSS VDD=VDD Z=n239 I=n102 
Xicc_place35 BUFFD1BWP7T $PINS VSS=VSS VDD=VDD Z=n240 I=n40 
Xicc_place41 BUFFD1BWP7T $PINS VSS=VSS VDD=VDD Z=n274 I=n220 
Xicc_place42 BUFFD1BWP7T $PINS VSS=VSS VDD=VDD Z=n280 I=n317 
Xicc_place27 INVD1BWP7T $PINS VDD=VDD VSS=VSS I=n49 ZN=n191 
Xicc_place26 INVD1BWP7T $PINS VDD=VDD VSS=VSS I=n453 ZN=n189 
Xicc_place29 INVD2BWP7T $PINS VSS=VSS VDD=VDD I=n353 ZN=n203 
Xicc_place30 INVD2BWP7T $PINS VSS=VSS VDD=VDD I=n270 ZN=n223 
Xicc_place28 INVD1BWP7T $PINS VDD=VDD VSS=VSS I=n242 ZN=n196 
Xicc_place44 CKBD1BWP7T $PINS VSS=VSS VDD=VDD I=n93 Z=n282 
.ENDS

.SUBCKT clefia_sbox1_1 sout<7> sout<6> sout<5> sout<4> sout<3> sout<2> sout<1> 
+ sout<0> sin<7> sin<6> sin<5> sin<4> sin<3> sin<2> sin<1> sin<0> VSS VDD 
Xicc_route_opt4 BUFFD0BWP7T $PINS VSS=VSS VDD=VDD Z=n325 I=n174 
Xicc_route_opt3 BUFFD0BWP7T $PINS VSS=VSS VDD=VDD Z=n282 I=n429 
XU73 NR2D3BWP7T $PINS VSS=VSS VDD=VDD A1=n85 ZN=n218 A2=n106 
XU145 ND2D2BWP7T $PINS VSS=VSS VDD=VDD A1=n224 ZN=n170 A2=n352 
XU182 OAI31D1BWP7T $PINS VSS=VSS VDD=VDD B=n356 ZN=n37 A3=n36 A2=n219 A1=n93 
XU122 NR2D2BWP7T $PINS VSS=VSS VDD=VDD A1=n78 ZN=n93 A2=n11 
Xicc_place43 BUFFD1BWP7T $PINS VSS=VSS VDD=VDD Z=n308 I=n183 
XU51 ND2D1BWP7T $PINS VSS=VSS VDD=VDD A1=n16 ZN=n190 A2=n143 
XU47 ND2D1BWP7T $PINS VSS=VSS VDD=VDD A1=sin<3> ZN=n77 A2=sin<4> 
XU45 ND2D1P5BWP7T $PINS VSS=VSS VDD=VDD A1=n16 ZN=n150 A2=n162 
XU43 ND2D1BWP7T $PINS VSS=VSS VDD=VDD A1=n123 ZN=n3 A2=n337 
XU42 ND2D1P5BWP7T $PINS VSS=VSS VDD=VDD A1=n227 ZN=n337 A2=n162 
XU39 ND2D1BWP7T $PINS VSS=VSS VDD=VDD A1=n31 ZN=n123 A2=n227 
XU36 ND2D1BWP7T $PINS VSS=VSS VDD=VDD A1=n16 ZN=n160 A2=n31 
XU31 INVD0BWP7T $PINS ZN=n194 VSS=VSS VDD=VDD I=n72 
XU30 NR2D1BWP7T $PINS VSS=VSS VDD=VDD A1=n153 ZN=n72 A2=n246 
XU28 ND2D1BWP7T $PINS VSS=VSS VDD=VDD A1=n130 ZN=n333 A2=n135 
XU26 ND2D1P5BWP7T $PINS VSS=VSS VDD=VDD A1=n13 ZN=n78 A2=n41 
XU24 ND2D1P5BWP7T $PINS VSS=VSS VDD=VDD A1=n364 ZN=n260 A2=sin<1> 
XU16 ND2D1P5BWP7T $PINS VSS=VSS VDD=VDD A1=sin<1> ZN=n145 A2=sin<2> 
XU14 ND2D1BWP7T $PINS VSS=VSS VDD=VDD A1=n189 ZN=n300 A2=n143 
XU12 ND2D1BWP7T $PINS VSS=VSS VDD=VDD A1=sin<3> ZN=n261 A2=n286 