*SPEF "IEEE 1481-1999"
*DESIGN "systolic_array"
*DATE "Wed Dec 21 12:24:54 2022"
*VENDOR "SYNOPSYS INC"
*PROGRAM "Synopsys Design Compiler cmos"
*VERSION "L-2016.03-SP5"
*DESIGN_FLOW "SYNTHESIS"
*DIVIDER /
*DELIMITER :
*BUS_DELIMITER []
*T_UNIT 1.0 NS
*C_UNIT 1.0 PF
*R_UNIT 1.0 KOHM
*L_UNIT 1.0 HENRY

*PORTS

clk_p I *L 0.000e+00 *S 5.873e-01 6.573e-01 *D BUFFD1BWP7T 
rstn_p I *L 0.000e+00 *S 5.877e-01 6.572e-01 *D BUFFD1BWP7T 
en_p I *L 0.000e+00 *S 5.878e-01 6.559e-01 *D BUFFD1BWP7T 
p_shift_in_A\[7\] I *L 0.000e+00 *S 5.878e-01 6.559e-01 *D BUFFD1BWP7T 
p_shift_in_A\[6\] I *L 0.000e+00 *S 5.878e-01 6.559e-01 *D BUFFD1BWP7T 
p_shift_in_A\[5\] I *L 0.000e+00 *S 5.878e-01 6.559e-01 *D BUFFD1BWP7T 
p_shift_in_A\[4\] I *L 0.000e+00 *S 5.878e-01 6.559e-01 *D BUFFD1BWP7T 
p_shift_in_A\[3\] I *L 0.000e+00 *S 5.878e-01 6.559e-01 *D BUFFD1BWP7T 
p_shift_in_A\[2\] I *L 0.000e+00 *S 5.878e-01 6.559e-01 *D BUFFD1BWP7T 
p_shift_in_A\[1\] I *L 0.000e+00 *S 5.878e-01 6.559e-01 *D BUFFD1BWP7T 
p_shift_in_A\[0\] I *L 0.000e+00 *S 5.878e-01 6.559e-01 *D BUFFD1BWP7T 
p_shift_in_B\[7\] I *L 0.000e+00 *S 5.878e-01 6.559e-01 *D BUFFD1BWP7T 
p_shift_in_B\[6\] I *L 0.000e+00 *S 5.878e-01 6.559e-01 *D BUFFD1BWP7T 
p_shift_in_B\[5\] I *L 0.000e+00 *S 5.878e-01 6.559e-01 *D BUFFD1BWP7T 
p_shift_in_B\[4\] I *L 0.000e+00 *S 5.878e-01 6.559e-01 *D BUFFD1BWP7T 
p_shift_in_B\[3\] I *L 0.000e+00 *S 5.878e-01 6.559e-01 *D BUFFD1BWP7T 
p_shift_in_B\[2\] I *L 0.000e+00 *S 5.878e-01 6.559e-01 *D BUFFD1BWP7T 
p_shift_in_B\[1\] I *L 0.000e+00 *S 5.878e-01 6.559e-01 *D BUFFD1BWP7T 
p_shift_in_B\[0\] I *L 0.000e+00 *S 5.878e-01 6.559e-01 *D BUFFD1BWP7T 
p_shift_out\[7\] O *L 1.033e-01 *S 6.141e-01 6.853e-01 
p_shift_out\[6\] O *L 1.033e-01 *S 6.141e-01 6.853e-01 
p_shift_out\[5\] O *L 1.033e-01 *S 6.141e-01 6.853e-01 
p_shift_out\[4\] O *L 1.033e-01 *S 6.141e-01 6.853e-01 
p_shift_out\[3\] O *L 1.033e-01 *S 6.141e-01 6.853e-01 
p_shift_out\[2\] O *L 1.033e-01 *S 6.141e-01 6.853e-01 
p_shift_out\[1\] O *L 1.033e-01 *S 6.141e-01 6.853e-01 
p_shift_out\[0\] O *L 1.033e-01 *S 6.141e-01 6.853e-01 
ack_p O *L 1.033e-01 *S 6.141e-01 6.853e-01 

*R_NET clk_p 2.301e+00
*DRIVER clk_p
*CELL BUFFD1BWP7T
*C2_R1_C1 1.151e+00 2.514e-02 1.151e+00 
*LOADS
*RC u_pad_clk:PAD 3.857e-02
*DRIVER u_pad_clk:PAD
*CELL PDDW0208SCDG
*C2_R1_C1 1.151e+00 2.514e-02 1.151e+00 
*LOADS
*END

*R_NET rstn_p 2.301e+00
*DRIVER rstn_p
*CELL BUFFD1BWP7T
*C2_R1_C1 1.151e+00 2.514e-02 1.151e+00 
*LOADS
*RC u_pad_rst_n:PAD 3.857e-02
*DRIVER u_pad_rst_n:PAD
*CELL PDUW0208SCDG
*C2_R1_C1 1.151e+00 2.514e-02 1.151e+00 
*LOADS
*END

*R_NET en_p 2.301e+00
*DRIVER en_p
*CELL BUFFD1BWP7T
*C2_R1_C1 1.151e+00 2.514e-02 1.151e+00 
*LOADS
*RC u_pad_data_in_16:PAD 3.857e-02
*DRIVER u_pad_data_in_16:PAD
*CELL PDDW0208CDG
*C2_R1_C1 1.151e+00 2.514e-02 1.151e+00 
*LOADS
*END

*R_NET p_shift_in_A\[7\] 2.301e+00
*DRIVER p_shift_in_A\[7\]
*CELL BUFFD1BWP7T
*C2_R1_C1 1.151e+00 2.514e-02 1.151e+00 
*LOADS
*RC u_pad_data_in_7:PAD 3.857e-02
*DRIVER u_pad_data_in_7:PAD
*CELL PDDW0208CDG
*C2_R1_C1 1.151e+00 2.514e-02 1.151e+00 
*LOADS
*END

*R_NET p_shift_in_A\[6\] 2.301e+00
*DRIVER p_shift_in_A\[6\]
*CELL BUFFD1BWP7T
*C2_R1_C1 1.151e+00 2.514e-02 1.151e+00 
*LOADS
*RC u_pad_data_in_6:PAD 3.857e-02
*DRIVER u_pad_data_in_6:PAD
*CELL PDDW0208CDG
*C2_R1_C1 1.151e+00 2.514e-02 1.151e+00 
*LOADS
*END

*R_NET p_shift_in_A\[5\] 2.301e+00
*DRIVER p_shift_in_A\[5\]
*CELL BUFFD1BWP7T
*C2_R1_C1 1.151e+00 2.514e-02 1.151e+00 
*LOADS
*RC u_pad_data_in_5:PAD 3.857e-02
*DRIVER u_pad_data_in_5:PAD
*CELL PDDW0208CDG
*C2_R1_C1 1.151e+00 2.514e-02 1.151e+00 
*LOADS
*END

*R_NET p_shift_in_A\[4\] 2.301e+00
*DRIVER p_shift_in_A\[4\]
*CELL BUFFD1BWP7T
*C2_R1_C1 1.151e+00 2.514e-02 1.151e+00 
*LOADS
*RC u_pad_data_in_4:PAD 3.857e-02
*DRIVER u_pad_data_in_4:PAD
*CELL PDDW0208CDG
*C2_R1_C1 1.151e+00 2.514e-02 1.151e+00 
*LOADS
*END

*R_NET p_shift_in_A\[3\] 2.301e+00
*DRIVER p_shift_in_A\[3\]
*CELL BUFFD1BWP7T
*C2_R1_C1 1.151e+00 2.514e-02 1.151e+00 
*LOADS
*RC u_pad_data_in_3:PAD 3.857e-02
*DRIVER u_pad_data_in_3:PAD
*CELL PDDW0208CDG
*C2_R1_C1 1.151e+00 2.514e-02 1.151e+00 
*LOADS
*END

*R_NET p_shift_in_A\[2\] 2.301e+00
*DRIVER p_shift_in_A\[2\]
*CELL BUFFD1BWP7T
*C2_R1_C1 1.151e+00 2.514e-02 1.151e+00 
*LOADS
*RC u_pad_data_in_2:PAD 3.857e-02
*DRIVER u_pad_data_in_2:PAD
*CELL PDDW0208CDG
*C2_R1_C1 1.151e+00 2.514e-02 1.151e+00 
*LOADS
*END

*R_NET p_shift_in_A\[1\] 2.301e+00
*DRIVER p_shift_in_A\[1\]
*CELL BUFFD1BWP7T
*C2_R1_C1 1.151e+00 2.514e-02 1.151e+00 
*LOADS
*RC u_pad_data_in_1:PAD 3.857e-02
*DRIVER u_pad_data_in_1:PAD
*CELL PDDW0208CDG
*C2_R1_C1 1.151e+00 2.514e-02 1.151e+00 
*LOADS
*END

*R_NET p_shift_in_A\[0\] 2.301e+00
*DRIVER p_shift_in_A\[0\]
*CELL BUFFD1BWP7T
*C2_R1_C1 1.151e+00 2.514e-02 1.151e+00 
*LOADS
*RC u_pad_data_in_0:PAD 3.857e-02
*DRIVER u_pad_data_in_0:PAD
*CELL PDDW0208CDG
*C2_R1_C1 1.151e+00 2.514e-02 1.151e+00 
*LOADS
*END

*R_NET p_shift_in_B\[7\] 2.301e+00
*DRIVER p_shift_in_B\[7\]
*CELL BUFFD1BWP7T
*C2_R1_C1 1.151e+00 2.514e-02 1.151e+00 
*LOADS
*RC u_pad_data_in_15:PAD 3.857e-02
*DRIVER u_pad_data_in_15:PAD
*CELL PDDW0208CDG
*C2_R1_C1 1.151e+00 2.514e-02 1.151e+00 
*LOADS
*END

*R_NET p_shift_in_B\[6\] 2.301e+00
*DRIVER p_shift_in_B\[6\]
*CELL BUFFD1BWP7T
*C2_R1_C1 1.151e+00 2.514e-02 1.151e+00 
*LOADS
*RC u_pad_data_in_14:PAD 3.857e-02
*DRIVER u_pad_data_in_14:PAD
*CELL PDDW0208CDG
*C2_R1_C1 1.151e+00 2.514e-02 1.151e+00 
*LOADS
*END

*R_NET p_shift_in_B\[5\] 2.301e+00
*DRIVER p_shift_in_B\[5\]
*CELL BUFFD1BWP7T
*C2_R1_C1 1.151e+00 2.514e-02 1.151e+00 
*LOADS
*RC u_pad_data_in_13:PAD 3.857e-02
*DRIVER u_pad_data_in_13:PAD
*CELL PDDW0208CDG
*C2_R1_C1 1.151e+00 2.514e-02 1.151e+00 
*LOADS
*END

*R_NET p_shift_in_B\[4\] 2.301e+00
*DRIVER p_shift_in_B\[4\]
*CELL BUFFD1BWP7T
*C2_R1_C1 1.151e+00 2.514e-02 1.151e+00 
*LOADS
*RC u_pad_data_in_12:PAD 3.857e-02
*DRIVER u_pad_data_in_12:PAD
*CELL PDDW0208CDG
*C2_R1_C1 1.151e+00 2.514e-02 1.151e+00 
*LOADS
*END

*R_NET p_shift_in_B\[3\] 2.301e+00
*DRIVER p_shift_in_B\[3\]
*CELL BUFFD1BWP7T
*C2_R1_C1 1.151e+00 2.514e-02 1.151e+00 
*LOADS
*RC u_pad_data_in_11:PAD 3.857e-02
*DRIVER u_pad_data_in_11:PAD
*CELL PDDW0208CDG
*C2_R1_C1 1.151e+00 2.514e-02 1.151e+00 
*LOADS
*END

*R_NET p_shift_in_B\[2\] 2.301e+00
*DRIVER p_shift_in_B\[2\]
*CELL BUFFD1BWP7T
*C2_R1_C1 1.151e+00 2.514e-02 1.151e+00 
*LOADS
*RC u_pad_data_in_10:PAD 3.857e-02
*DRIVER u_pad_data_in_10:PAD
*CELL PDDW0208CDG
*C2_R1_C1 1.151e+00 2.514e-02 1.151e+00 
*LOADS
*END

*R_NET p_shift_in_B\[1\] 2.301e+00
*DRIVER p_shift_in_B\[1\]
*CELL BUFFD1BWP7T
*C2_R1_C1 1.151e+00 2.514e-02 1.151e+00 
*LOADS
*RC u_pad_data_in_9:PAD 3.857e-02
*DRIVER u_pad_data_in_9:PAD
*CELL PDDW0208CDG
*C2_R1_C1 1.151e+00 2.514e-02 1.151e+00 
*LOADS
*END

*R_NET p_shift_in_B\[0\] 2.301e+00
*DRIVER p_shift_in_B\[0\]
*CELL BUFFD1BWP7T
*C2_R1_C1 1.151e+00 2.514e-02 1.151e+00 
*LOADS
*RC u_pad_data_in_8:PAD 3.857e-02
*DRIVER u_pad_data_in_8:PAD
*CELL PDDW0208CDG
*C2_R1_C1 1.151e+00 2.514e-02 1.151e+00 
*LOADS
*END

*R_NET p_shift_out\[7\] 2.405e+00
*DRIVER u_pad_data_out_7:PAD
*CELL PDDW0208CDG
*C2_R1_C1 1.202e+00 5.028e-02 1.202e+00 
*LOADS
*RC p_shift_out\[7\] 2.516e-02
*END

*R_NET p_shift_out\[6\] 2.405e+00
*DRIVER u_pad_data_out_6:PAD
*CELL PDDW0208CDG
*C2_R1_C1 1.202e+00 5.028e-02 1.202e+00 
*LOADS
*RC p_shift_out\[6\] 2.516e-02
*END

*R_NET p_shift_out\[5\] 2.405e+00
*DRIVER u_pad_data_out_5:PAD
*CELL PDDW0208CDG
*C2_R1_C1 1.202e+00 5.028e-02 1.202e+00 
*LOADS
*RC p_shift_out\[5\] 2.516e-02
*END

*R_NET p_shift_out\[4\] 2.405e+00
*DRIVER u_pad_data_out_4:PAD
*CELL PDDW0208CDG
*C2_R1_C1 1.202e+00 5.028e-02 1.202e+00 
*LOADS
*RC p_shift_out\[4\] 2.516e-02
*END

*R_NET p_shift_out\[3\] 2.405e+00
*DRIVER u_pad_data_out_3:PAD
*CELL PDDW0208CDG
*C2_R1_C1 1.202e+00 5.028e-02 1.202e+00 
*LOADS
*RC p_shift_out\[3\] 2.516e-02
*END

*R_NET p_shift_out\[2\] 2.405e+00
*DRIVER u_pad_data_out_2:PAD
*CELL PDDW0208CDG
*C2_R1_C1 1.202e+00 5.028e-02 1.202e+00 
*LOADS
*RC p_shift_out\[2\] 2.516e-02
*END

*R_NET p_shift_out\[1\] 2.405e+00
*DRIVER u_pad_data_out_1:PAD
*CELL PDDW0208CDG
*C2_R1_C1 1.202e+00 5.028e-02 1.202e+00 
*LOADS
*RC p_shift_out\[1\] 2.516e-02
*END

*R_NET p_shift_out\[0\] 2.405e+00
*DRIVER u_pad_data_out_0:PAD
*CELL PDDW0208CDG
*C2_R1_C1 1.202e+00 5.028e-02 1.202e+00 
*LOADS
*RC p_shift_out\[0\] 2.516e-02
*END

*R_NET ack_p 2.405e+00
*DRIVER u_pad_data_out_8:PAD
*CELL PDDW0208CDG
*C2_R1_C1 1.202e+00 5.028e-02 1.202e+00 
*LOADS
*RC ack_p 2.516e-02
*END

*R_NET clk 3.699e+00
*DRIVER u_pad_clk:C
*CELL PDDW0208SCDG
*C2_R1_C1 1.850e+00 1.801e+01 1.850e+00 
*LOADS
*RC SA_B_0_shift_reg_reg_6__1_:CP 4.151e+00
*RC SA_ctrl_state_compute_out_reg_0_:CP 4.114e+00
*RC SA_core_pe_1_0_Bij_o_reg_6_:CP 9.199e-01
*RC SA_ctrl_state_load_id_reg_2_:CP 4.305e+00
*RC SA_ctrl_state_load_row_reg_1_:CP 4.448e+00
*RC SA_A_0_shift_reg_reg_6__0_:CP 4.147e+00
*RC SA_core_pe_2_1_Bij_o_reg_1_:CP 4.701e+00
*RC SA_B_2_shift_reg_reg_6__1_:CP 4.151e+00
*RC SA_core_pe_3_2_Aij_o_reg_0_:CP 4.393e+00
*RC SA_B_3_shift_reg_reg_6__0_:CP 2.906e+00
*RC SA_core_pe_2_2_Bij_o_reg_1_:CP 4.767e+00
*RC SA_core_pe_1_3_Bij_o_reg_1_:CP 4.459e+00
*RC SA_core_pe_1_2_Bij_o_reg_1_:CP 4.156e+00
*RC SA_core_pe_1_1_Bij_o_reg_1_:CP 3.920e+00
*RC SA_core_pe_1_0_Aij_o_reg_0_:CP 4.104e-01
*RC SA_A_3_shift_reg_reg_6__0_:CP 4.162e+00
*RC SA_core_pe_0_2_Aij_o_reg_0_:CP 1.533e+00
*RC SA_core_pe_0_1_Cij_o_reg_7_:CP 4.081e+00
*RC SA_core_pe_0_2_Cij_o_reg_5_:CP 3.988e+00
*RC SA_core_pe_2_1_Cij_o_reg_5_:CP 4.015e+00
*RC SA_core_pe_0_2_Cij_o_reg_1_:CP 3.968e+00
*RC SA_core_pe_0_2_Cij_o_reg_0_:CP 4.036e+00
*RC SA_core_pe_0_2_Aij_o_reg_2_:CP 1.694e+00
*RC SA_B_1_shift_reg_reg_6__7_:CP 5.014e+00
*RC SA_core_pe_2_3_Bij_o_reg_0_:CP 4.448e+00
*RC SA_core_pe_0_2_Bij_o_reg_0_:CP 9.736e-01
*RC SA_core_pe_0_2_Aij_o_reg_4_:CP 1.695e+00
*RC SA_core_pe_0_1_Bij_o_reg_3_:CP 1.035e+00
*RC SA_core_pe_0_2_Aij_o_reg_3_:CP 1.773e+00
*RC SA_core_pe_0_2_Aij_o_reg_5_:CP 1.997e+00
*RC SA_core_pe_3_1_Aij_o_reg_3_:CP 5.130e+00
*RC SA_ctrl_state_load_row_reg_0_:CP 4.336e+00
*RC SA_B_0_shift_reg_reg_6__0_:CP 4.140e+00
*RC SA_A_2_shift_reg_reg_6__7_:CP 3.947e+00
*RC SA_ctrl_state_compute_out_reg_1_:CP 4.154e+00
*RC SA_core_pe_1_0_Bij_o_reg_7_:CP 6.660e-01
*RC SA_core_pe_2_0_Bij_o_reg_0_:CP 4.327e+00
*RC SA_A_1_shift_reg_reg_6__7_:CP 5.124e+00
*RC SA_ctrl_state_load_id_reg_0_:CP 4.269e+00
*RC SA_core_pe_0_2_Cij_o_reg_6_:CP 3.953e+00
*RC SA_B_0_shift_reg_reg_6__7_:CP 4.164e+00
*RC SA_core_pe_3_0_Aij_o_reg_6_:CP 4.487e+00
*RC SA_core_pe_1_2_Bij_o_reg_6_:CP 4.142e+00
*RC SA_core_pe_0_3_Cij_o_reg_6_:CP 4.047e+00
*RC SA_B_1_shift_reg_reg_6__6_:CP 5.210e+00
*RC SA_ctrl_state_load_id_reg_1_:CP 4.404e+00
*RC SA_ctrl_state_overall_reg_1_:CP 4.272e+00
*RC SA_core_pe_0_2_Cij_o_reg_4_:CP 1.430e+00
*RC SA_A_2_shift_reg_reg_6__6_:CP 1.807e+00
*RC SA_A_1_shift_reg_reg_6__6_:CP 4.857e+00
*RC SA_B_3_shift_reg_reg_6__1_:CP 4.045e+00
*RC SA_A_2_shift_reg_reg_6__5_:CP 3.952e+00
*RC SA_core_pe_2_0_Bij_o_reg_1_:CP 4.291e+00
*RC SA_A_2_shift_reg_reg_6__4_:CP 1.541e+00
*RC SA_B_1_shift_reg_reg_6__5_:CP 5.045e+00
*RC SA_A_1_shift_reg_reg_6__4_:CP 4.812e+00
*RC SA_A_1_shift_reg_reg_6__5_:CP 4.857e+00
*RC SA_B_1_shift_reg_reg_6__4_:CP 5.158e+00
*RC SA_core_pe_3_3_Cij_o_reg_4_:CP 4.463e+00
*RC SA_core_pe_0_0_Bij_o_reg_1_:CP 1.014e+00
*RC SA_core_pe_0_2_Bij_o_reg_1_:CP 1.085e+00
*RC SA_core_pe_1_0_Bij_o_reg_1_:CP 9.981e-01
*RC SA_core_pe_0_3_Bij_o_reg_1_:CP 2.040e+00
*RC SA_core_pe_0_2_Cij_o_reg_3_:CP 1.533e+00
*RC SA_core_pe_0_2_Cij_o_reg_2_:CP 1.489e+00
*RC SA_core_pe_0_1_Bij_o_reg_2_:CP 1.117e+00
*RC SA_B_2_shift_reg_reg_6__2_:CP 4.107e+00
*RC SA_B_3_shift_reg_reg_6__2_:CP 3.062e+00
*RC SA_A_2_shift_reg_reg_6__2_:CP 3.954e+00
*RC SA_A_2_shift_reg_reg_6__3_:CP 3.951e+00
*RC SA_A_3_shift_reg_reg_6__2_:CP 4.217e+00
*RC SA_A_3_shift_reg_reg_6__3_:CP 4.152e+00
*RC SA_B_1_shift_reg_reg_6__3_:CP 4.973e+00
*RC SA_A_1_shift_reg_reg_6__2_:CP 5.307e+00
*RC SA_A_1_shift_reg_reg_6__3_:CP 5.346e+00
*RC SA_B_1_shift_reg_reg_6__2_:CP 4.951e+00
*RC SA_core_pe_3_1_Aij_o_reg_0_:CP 4.949e+00
*RC SA_core_pe_2_3_Bij_o_reg_1_:CP 4.481e+00
*RC SA_core_pe_3_0_Aij_o_reg_0_:CP 4.641e+00
*RC SA_core_pe_1_2_Aij_o_reg_0_:CP 4.134e+00
*RC SA_B_2_shift_reg_reg_6__0_:CP 4.006e+00
*RC SA_A_2_shift_reg_reg_6__0_:CP 1.326e+00
*RC SA_core_pe_0_1_Bij_o_reg_0_:CP 1.148e+00
*RC SA_A_2_shift_reg_reg_6__1_:CP 3.952e+00
*RC SA_core_pe_0_1_Aij_o_reg_0_:CP 4.013e+00
*RC SA_core_pe_0_0_Bij_o_reg_0_:CP 7.763e-01
*RC SA_B_1_shift_reg_reg_6__0_:CP 4.763e+00
*RC SA_A_1_shift_reg_reg_6__1_:CP 5.264e+00
*RC SA_B_1_shift_reg_reg_6__1_:CP 4.870e+00
*RC SA_core_pe_1_1_Aij_o_reg_0_:CP 1.574e+00
*RC SA_core_pe_2_2_Aij_o_reg_0_:CP 4.512e+00
*RC SA_core_pe_2_1_Aij_o_reg_0_:CP 4.202e+00
*RC SA_core_pe_0_1_Bij_o_reg_1_:CP 9.276e-01
*RC SA_core_pe_2_0_Aij_o_reg_0_:CP 3.961e+00
*RC SA_core_pe_0_0_Aij_o_reg_0_:CP 1.498e+00
*RC SA_A_1_shift_reg_reg_6__0_:CP 5.087e+00
*RC SA_ctrl_state_compute_pump_reg_2_:CP 4.164e+00
*RC SA_ctrl_state_compute_pump_reg_3_:CP 4.123e+00
*RC SA_A_0_shift_reg_reg_6__4_:CP 4.290e+00
*RC SA_core_pe_3_1_Aij_o_reg_1_:CP 5.087e+00
*RC SA_core_pe_2_1_Bij_o_reg_5_:CP 4.710e+00
*RC SA_core_pe_1_1_Aij_o_reg_2_:CP 1.542e+00
*RC SA_core_pe_2_1_Bij_o_reg_2_:CP 4.798e+00
*RC SA_B_0_shift_reg_reg_0__4_:CP 4.863e+00
*RC SA_ctrl_state_compute_pump_reg_1_:CP 4.244e+00
*RC SA_ctrl_state_compute_out_counter_reg_0_:CP 4.058e+00
*RC SA_ctrl_state_compute_out_counter_reg_1_:CP 4.062e+00
*RC SA_A_3_shift_reg_reg_0__7_:CP 4.657e+00
*RC SA_A_3_shift_reg_reg_0__6_:CP 4.956e+00
*RC SA_A_3_shift_reg_reg_0__5_:CP 4.787e+00
*RC SA_A_3_shift_reg_reg_0__4_:CP 4.648e+00
*RC SA_A_3_shift_reg_reg_0__3_:CP 5.042e+00
*RC SA_A_3_shift_reg_reg_0__2_:CP 4.696e+00
*RC SA_A_3_shift_reg_reg_0__1_:CP 4.912e+00
*RC SA_A_3_shift_reg_reg_0__0_:CP 4.950e+00
*RC SA_B_3_shift_reg_reg_0__6_:CP 4.845e+00
*RC SA_B_3_shift_reg_reg_0__5_:CP 4.816e+00
*RC SA_B_3_shift_reg_reg_0__4_:CP 4.636e+00
*RC SA_B_3_shift_reg_reg_0__3_:CP 4.874e+00
*RC SA_B_3_shift_reg_reg_0__2_:CP 4.730e+00
*RC SA_B_3_shift_reg_reg_0__1_:CP 4.726e+00
*RC SA_B_3_shift_reg_reg_0__0_:CP 4.572e+00
*RC SA_B_3_shift_reg_reg_0__7_:CP 4.543e+00
*RC SA_A_2_shift_reg_reg_0__3_:CP 4.563e+00
*RC SA_A_2_shift_reg_reg_0__2_:CP 4.362e+00
*RC SA_A_1_shift_reg_reg_0__3_:CP 6.072e+00
*RC SA_A_1_shift_reg_reg_0__2_:CP 5.820e+00
*RC SA_B_0_shift_reg_reg_0__3_:CP 4.956e+00
*RC SA_B_0_shift_reg_reg_0__2_:CP 4.915e+00
*RC SA_B_2_shift_reg_reg_0__6_:CP 4.682e+00
*RC SA_B_2_shift_reg_reg_0__5_:CP 4.657e+00
*RC SA_B_2_shift_reg_reg_0__4_:CP 4.710e+00
*RC SA_B_2_shift_reg_reg_0__3_:CP 4.729e+00
*RC SA_B_2_shift_reg_reg_0__2_:CP 4.769e+00
*RC SA_B_2_shift_reg_reg_0__1_:CP 4.632e+00
*RC SA_B_2_shift_reg_reg_0__0_:CP 4.389e+00
*RC SA_A_2_shift_reg_reg_0__7_:CP 4.145e+00
*RC SA_A_2_shift_reg_reg_0__6_:CP 4.190e+00
*RC SA_A_2_shift_reg_reg_0__5_:CP 4.234e+00
*RC SA_A_2_shift_reg_reg_0__4_:CP 4.208e+00
*RC SA_A_2_shift_reg_reg_0__1_:CP 4.299e+00
*RC SA_A_2_shift_reg_reg_0__0_:CP 4.486e+00
*RC SA_B_2_shift_reg_reg_0__7_:CP 4.571e+00
*RC SA_A_1_shift_reg_reg_0__7_:CP 5.779e+00
*RC SA_A_1_shift_reg_reg_0__6_:CP 5.260e+00
*RC SA_A_1_shift_reg_reg_0__5_:CP 5.302e+00
*RC SA_A_1_shift_reg_reg_0__4_:CP 5.221e+00
*RC SA_A_1_shift_reg_reg_0__1_:CP 5.898e+00
*RC SA_A_1_shift_reg_reg_0__0_:CP 5.715e+00
*RC SA_B_1_shift_reg_reg_0__6_:CP 5.829e+00
*RC SA_B_1_shift_reg_reg_0__5_:CP 5.659e+00
*RC SA_B_1_shift_reg_reg_0__4_:CP 5.938e+00
*RC SA_B_1_shift_reg_reg_0__3_:CP 5.517e+00
*RC SA_B_1_shift_reg_reg_0__2_:CP 5.438e+00
*RC SA_B_1_shift_reg_reg_0__1_:CP 5.379e+00
*RC SA_B_1_shift_reg_reg_0__0_:CP 5.122e+00
*RC SA_B_1_shift_reg_reg_0__7_:CP 5.509e+00
*RC SA_A_0_shift_reg_reg_0__7_:CP 5.018e+00
*RC SA_B_0_shift_reg_reg_0__7_:CP 4.945e+00
*RC SA_B_0_shift_reg_reg_0__6_:CP 4.888e+00
*RC SA_B_0_shift_reg_reg_0__5_:CP 4.875e+00
*RC SA_B_0_shift_reg_reg_0__0_:CP 4.803e+00
*RC SA_B_0_shift_reg_reg_0__1_:CP 4.946e+00
*RC SA_core_pe_0_2_Aij_o_reg_7_:CP 1.614e+00
*RC SA_core_pe_0_1_Aij_o_reg_7_:CP 4.062e+00
*RC SA_core_pe_0_2_Aij_o_reg_6_:CP 1.697e+00
*RC SA_core_pe_0_1_Aij_o_reg_6_:CP 4.102e+00
*RC SA_core_pe_0_1_Aij_o_reg_5_:CP 4.055e+00
*RC SA_core_pe_0_1_Aij_o_reg_4_:CP 4.023e+00
*RC SA_core_pe_0_1_Aij_o_reg_3_:CP 1.382e+00
*RC SA_core_pe_0_1_Aij_o_reg_2_:CP 1.311e+00
*RC SA_core_pe_0_2_Aij_o_reg_1_:CP 1.415e+00
*RC SA_core_pe_0_1_Aij_o_reg_1_:CP 3.915e+00
*RC SA_core_pe_2_1_Bij_o_reg_7_:CP 4.640e+00
*RC SA_core_pe_1_1_Bij_o_reg_7_:CP 4.050e+00
*RC SA_core_pe_0_1_Bij_o_reg_7_:CP 8.296e-01
*RC SA_core_pe_2_1_Bij_o_reg_6_:CP 4.657e+00
*RC SA_core_pe_1_1_Bij_o_reg_6_:CP 3.991e+00
*RC SA_core_pe_0_1_Bij_o_reg_6_:CP 7.575e-01
*RC SA_core_pe_1_1_Bij_o_reg_5_:CP 3.974e+00
*RC SA_core_pe_0_1_Bij_o_reg_5_:CP 1.454e+00
*RC SA_core_pe_2_1_Bij_o_reg_4_:CP 4.754e+00
*RC SA_core_pe_1_1_Bij_o_reg_4_:CP 3.958e+00
*RC SA_core_pe_0_1_Bij_o_reg_4_:CP 1.242e+00
*RC SA_core_pe_2_1_Bij_o_reg_3_:CP 4.738e+00
*RC SA_core_pe_1_1_Bij_o_reg_3_:CP 3.948e+00
*RC SA_core_pe_1_1_Bij_o_reg_2_:CP 3.928e+00
*RC SA_core_pe_2_1_Bij_o_reg_0_:CP 4.873e+00
*RC SA_core_pe_1_1_Bij_o_reg_0_:CP 4.051e+00
*RC SA_core_pe_0_3_Cij_o_reg_7_:CP 4.060e+00
*RC SA_core_pe_0_2_Cij_o_reg_7_:CP 3.971e+00
*RC SA_core_pe_0_1_Cij_o_reg_6_:CP 4.101e+00
*RC SA_core_pe_0_3_Cij_o_reg_5_:CP 3.985e+00
*RC SA_core_pe_0_1_Cij_o_reg_5_:CP 3.943e+00
*RC SA_core_pe_0_3_Cij_o_reg_4_:CP 4.049e+00
*RC SA_core_pe_0_1_Cij_o_reg_4_:CP 1.899e+00
*RC SA_core_pe_0_3_Cij_o_reg_3_:CP 3.980e+00
*RC SA_core_pe_0_1_Cij_o_reg_3_:CP 1.724e+00
*RC SA_core_pe_0_3_Cij_o_reg_2_:CP 3.998e+00
*RC SA_core_pe_0_1_Cij_o_reg_2_:CP 1.606e+00
*RC SA_core_pe_0_3_Cij_o_reg_1_:CP 2.143e+00
*RC SA_core_pe_0_1_Cij_o_reg_1_:CP 1.245e+00
*RC SA_core_pe_0_3_Cij_o_reg_0_:CP 1.838e+00
*RC SA_core_pe_0_1_Cij_o_reg_0_:CP 4.076e+00
*RC SA_core_pe_2_2_Bij_o_reg_7_:CP 4.681e+00
*RC SA_core_pe_1_2_Bij_o_reg_7_:CP 4.261e+00
*RC SA_core_pe_0_2_Bij_o_reg_7_:CP 1.436e+00
*RC SA_core_pe_2_2_Bij_o_reg_6_:CP 4.744e+00
*RC SA_core_pe_0_2_Bij_o_reg_6_:CP 1.455e+00
*RC SA_core_pe_2_2_Bij_o_reg_5_:CP 4.826e+00
*RC SA_core_pe_1_2_Bij_o_reg_5_:CP 4.194e+00
*RC SA_core_pe_0_2_Bij_o_reg_5_:CP 1.289e+00
*RC SA_core_pe_2_2_Bij_o_reg_4_:CP 4.778e+00
*RC SA_core_pe_1_2_Bij_o_reg_4_:CP 4.187e+00
*RC SA_core_pe_0_2_Bij_o_reg_4_:CP 1.268e+00
*RC SA_core_pe_2_2_Bij_o_reg_3_:CP 4.848e+00
*RC SA_core_pe_1_2_Bij_o_reg_3_:CP 4.232e+00
*RC SA_core_pe_0_2_Bij_o_reg_3_:CP 1.134e+00
*RC SA_core_pe_2_2_Bij_o_reg_2_:CP 4.747e+00
*RC SA_core_pe_1_2_Bij_o_reg_2_:CP 4.235e+00
*RC SA_core_pe_0_2_Bij_o_reg_2_:CP 1.119e+00
*RC SA_core_pe_2_2_Bij_o_reg_0_:CP 4.698e+00
*RC SA_core_pe_1_2_Bij_o_reg_0_:CP 4.195e+00
*RC SA_core_pe_2_3_Bij_o_reg_7_:CP 4.236e+00
*RC SA_core_pe_1_3_Bij_o_reg_7_:CP 4.237e+00
*RC SA_core_pe_0_3_Bij_o_reg_7_:CP 4.145e+00
*RC SA_core_pe_2_3_Bij_o_reg_6_:CP 4.237e+00
*RC SA_core_pe_1_3_Bij_o_reg_6_:CP 4.240e+00
*RC SA_core_pe_0_3_Bij_o_reg_6_:CP 4.176e+00
*RC SA_core_pe_2_3_Bij_o_reg_5_:CP 4.332e+00
*RC SA_core_pe_1_3_Bij_o_reg_5_:CP 4.344e+00
*RC SA_core_pe_0_3_Bij_o_reg_5_:CP 4.201e+00
*RC SA_core_pe_2_3_Bij_o_reg_4_:CP 4.347e+00
*RC SA_core_pe_1_3_Bij_o_reg_4_:CP 4.339e+00
*RC SA_core_pe_0_3_Bij_o_reg_4_:CP 4.213e+00
*RC SA_core_pe_2_3_Bij_o_reg_3_:CP 4.389e+00
*RC SA_core_pe_1_3_Bij_o_reg_3_:CP 4.386e+00
*RC SA_core_pe_0_3_Bij_o_reg_3_:CP 4.164e+00
*RC SA_core_pe_2_3_Bij_o_reg_2_:CP 4.425e+00
*RC SA_core_pe_1_3_Bij_o_reg_2_:CP 4.409e+00
*RC SA_core_pe_0_3_Bij_o_reg_2_:CP 4.015e+00
*RC SA_core_pe_1_3_Bij_o_reg_0_:CP 4.394e+00
*RC SA_core_pe_0_3_Bij_o_reg_0_:CP 3.961e+00
*RC SA_core_pe_1_2_Aij_o_reg_7_:CP 1.777e+00
*RC SA_core_pe_1_1_Aij_o_reg_7_:CP 9.960e-01
*RC SA_core_pe_1_0_Aij_o_reg_7_:CP 1.035e+00
*RC SA_core_pe_1_2_Aij_o_reg_6_:CP 3.932e+00
*RC SA_core_pe_1_1_Aij_o_reg_6_:CP 1.014e+00
*RC SA_core_pe_1_0_Aij_o_reg_6_:CP 5.997e-01
*RC SA_core_pe_1_2_Aij_o_reg_5_:CP 3.999e+00
*RC SA_core_pe_1_1_Aij_o_reg_5_:CP 1.219e+00
*RC SA_core_pe_1_0_Aij_o_reg_5_:CP 5.601e-01
*RC SA_core_pe_1_2_Aij_o_reg_4_:CP 4.023e+00
*RC SA_core_pe_1_1_Aij_o_reg_4_:CP 1.291e+00
*RC SA_core_pe_1_0_Aij_o_reg_4_:CP 4.364e-01
*RC SA_core_pe_1_2_Aij_o_reg_3_:CP 4.084e+00
*RC SA_core_pe_1_1_Aij_o_reg_3_:CP 1.450e+00
*RC SA_core_pe_1_0_Aij_o_reg_3_:CP 4.618e-01
*RC SA_core_pe_1_2_Aij_o_reg_2_:CP 4.106e+00
*RC SA_core_pe_1_0_Aij_o_reg_2_:CP 3.460e-01
*RC SA_core_pe_1_2_Aij_o_reg_1_:CP 4.045e+00
*RC SA_core_pe_1_1_Aij_o_reg_1_:CP 3.947e+00
*RC SA_core_pe_1_0_Aij_o_reg_1_:CP 3.155e-01
*RC SA_core_pe_2_0_Bij_o_reg_7_:CP 4.230e+00
*RC SA_core_pe_2_0_Bij_o_reg_6_:CP 4.310e+00
*RC SA_core_pe_2_0_Bij_o_reg_5_:CP 4.198e+00
*RC SA_core_pe_1_0_Bij_o_reg_5_:CP 1.125e+00
*RC SA_core_pe_2_0_Bij_o_reg_4_:CP 4.264e+00
*RC SA_core_pe_1_0_Bij_o_reg_4_:CP 9.389e-01
*RC SA_core_pe_2_0_Bij_o_reg_3_:CP 4.282e+00
*RC SA_core_pe_1_0_Bij_o_reg_3_:CP 8.030e-01
*RC SA_core_pe_2_0_Bij_o_reg_2_:CP 4.359e+00
*RC SA_core_pe_1_0_Bij_o_reg_2_:CP 9.000e-01
*RC SA_core_pe_1_0_Bij_o_reg_0_:CP 9.822e-01
*RC SA_core_pe_1_3_Cij_o_reg_7_:CP 4.033e+00
*RC SA_core_pe_1_2_Cij_o_reg_7_:CP 3.937e+00
*RC SA_core_pe_1_1_Cij_o_reg_7_:CP 9.576e-01
*RC SA_core_pe_1_0_Cij_o_reg_7_:CP 9.142e-01
*RC SA_core_pe_1_3_Cij_o_reg_6_:CP 4.041e+00
*RC SA_core_pe_1_2_Cij_o_reg_6_:CP 3.922e+00
*RC SA_core_pe_1_1_Cij_o_reg_6_:CP 1.237e+00
*RC SA_core_pe_1_0_Cij_o_reg_6_:CP 7.965e-01
*RC SA_core_pe_1_3_Cij_o_reg_5_:CP 4.056e+00
*RC SA_core_pe_1_2_Cij_o_reg_5_:CP 3.950e+00
*RC SA_core_pe_1_1_Cij_o_reg_5_:CP 1.072e+00
*RC SA_core_pe_1_0_Cij_o_reg_5_:CP 6.952e-01
*RC SA_core_pe_1_3_Cij_o_reg_4_:CP 4.274e+00
*RC SA_core_pe_1_2_Cij_o_reg_4_:CP 4.003e+00
*RC SA_core_pe_1_1_Cij_o_reg_4_:CP 8.731e-01
*RC SA_core_pe_1_0_Cij_o_reg_4_:CP 3.774e-01
*RC SA_core_pe_1_3_Cij_o_reg_3_:CP 4.240e+00
*RC SA_core_pe_1_2_Cij_o_reg_3_:CP 3.937e+00
*RC SA_core_pe_1_1_Cij_o_reg_3_:CP 7.690e-01
*RC SA_core_pe_1_0_Cij_o_reg_3_:CP 2.256e-01
*RC SA_core_pe_1_3_Cij_o_reg_2_:CP 4.182e+00
*RC SA_core_pe_1_2_Cij_o_reg_2_:CP 1.548e+00
*RC SA_core_pe_1_1_Cij_o_reg_2_:CP 6.004e-01
*RC SA_core_pe_1_0_Cij_o_reg_2_:CP 2.710e-01
*RC SA_core_pe_1_3_Cij_o_reg_1_:CP 4.127e+00
*RC SA_core_pe_1_2_Cij_o_reg_1_:CP 1.390e+00
*RC SA_core_pe_1_1_Cij_o_reg_1_:CP 5.286e-01
*RC SA_core_pe_1_0_Cij_o_reg_1_:CP 3.612e-01
*RC SA_core_pe_1_3_Cij_o_reg_0_:CP 4.060e+00
*RC SA_core_pe_1_2_Cij_o_reg_0_:CP 1.506e+00
*RC SA_core_pe_1_1_Cij_o_reg_0_:CP 1.107e+00
*RC SA_core_pe_1_0_Cij_o_reg_0_:CP 3.459e-01
*RC SA_core_pe_2_2_Aij_o_reg_7_:CP 4.326e+00
*RC SA_core_pe_2_1_Aij_o_reg_7_:CP 4.154e+00
*RC SA_core_pe_2_0_Aij_o_reg_7_:CP 4.110e+00
*RC SA_core_pe_2_2_Aij_o_reg_6_:CP 4.410e+00
*RC SA_core_pe_2_1_Aij_o_reg_6_:CP 4.208e+00
*RC SA_core_pe_2_0_Aij_o_reg_6_:CP 3.986e+00
*RC SA_core_pe_2_2_Aij_o_reg_5_:CP 4.474e+00
*RC SA_core_pe_2_1_Aij_o_reg_5_:CP 4.244e+00
*RC SA_core_pe_2_0_Aij_o_reg_5_:CP 3.937e+00
*RC SA_core_pe_2_2_Aij_o_reg_4_:CP 4.555e+00
*RC SA_core_pe_2_1_Aij_o_reg_4_:CP 4.246e+00
*RC SA_core_pe_2_0_Aij_o_reg_4_:CP 3.989e+00
*RC SA_core_pe_2_2_Aij_o_reg_3_:CP 4.590e+00
*RC SA_core_pe_2_1_Aij_o_reg_3_:CP 4.261e+00
*RC SA_core_pe_2_0_Aij_o_reg_3_:CP 3.941e+00
*RC SA_core_pe_2_2_Aij_o_reg_2_:CP 4.557e+00
*RC SA_core_pe_2_1_Aij_o_reg_2_:CP 4.274e+00
*RC SA_core_pe_2_0_Aij_o_reg_2_:CP 3.952e+00
*RC SA_core_pe_2_2_Aij_o_reg_1_:CP 4.513e+00
*RC SA_core_pe_2_1_Aij_o_reg_1_:CP 4.224e+00
*RC SA_core_pe_2_0_Aij_o_reg_1_:CP 3.940e+00
*RC SA_core_pe_2_3_Cij_o_reg_7_:CP 4.435e+00
*RC SA_core_pe_2_2_Cij_o_reg_7_:CP 4.368e+00
*RC SA_core_pe_2_1_Cij_o_reg_7_:CP 4.174e+00
*RC SA_core_pe_2_0_Cij_o_reg_7_:CP 3.944e+00
*RC SA_core_pe_2_3_Cij_o_reg_6_:CP 4.459e+00
*RC SA_core_pe_2_2_Cij_o_reg_6_:CP 4.289e+00
*RC SA_core_pe_2_1_Cij_o_reg_6_:CP 4.002e+00
*RC SA_core_pe_2_0_Cij_o_reg_6_:CP 3.938e+00
*RC SA_core_pe_2_3_Cij_o_reg_5_:CP 4.626e+00
*RC SA_core_pe_2_2_Cij_o_reg_5_:CP 4.414e+00
*RC SA_core_pe_2_0_Cij_o_reg_5_:CP 1.896e+00
*RC SA_core_pe_2_3_Cij_o_reg_4_:CP 4.585e+00
*RC SA_core_pe_2_2_Cij_o_reg_4_:CP 4.388e+00
*RC SA_core_pe_2_1_Cij_o_reg_4_:CP 4.066e+00
*RC SA_core_pe_2_0_Cij_o_reg_4_:CP 2.108e+00
*RC SA_core_pe_2_3_Cij_o_reg_3_:CP 4.688e+00
*RC SA_core_pe_2_2_Cij_o_reg_3_:CP 4.309e+00
*RC SA_core_pe_2_1_Cij_o_reg_3_:CP 4.026e+00
*RC SA_core_pe_2_0_Cij_o_reg_3_:CP 1.851e+00
*RC SA_core_pe_2_3_Cij_o_reg_2_:CP 4.583e+00
*RC SA_core_pe_2_2_Cij_o_reg_2_:CP 4.346e+00
*RC SA_core_pe_2_1_Cij_o_reg_2_:CP 3.966e+00
*RC SA_core_pe_2_0_Cij_o_reg_2_:CP 3.985e+00
*RC SA_core_pe_2_3_Cij_o_reg_1_:CP 4.534e+00
*RC SA_core_pe_2_2_Cij_o_reg_1_:CP 4.300e+00
*RC SA_core_pe_2_1_Cij_o_reg_1_:CP 3.965e+00
*RC SA_core_pe_2_0_Cij_o_reg_1_:CP 2.025e+00
*RC SA_core_pe_2_3_Cij_o_reg_0_:CP 4.439e+00
*RC SA_core_pe_2_2_Cij_o_reg_0_:CP 4.295e+00
*RC SA_core_pe_2_1_Cij_o_reg_0_:CP 4.222e+00
*RC SA_core_pe_2_0_Cij_o_reg_0_:CP 3.940e+00
*RC SA_core_pe_3_2_Aij_o_reg_7_:CP 4.530e+00
*RC SA_core_pe_3_1_Aij_o_reg_7_:CP 4.685e+00
*RC SA_core_pe_3_0_Aij_o_reg_7_:CP 4.639e+00
*RC SA_core_pe_3_2_Aij_o_reg_6_:CP 4.601e+00
*RC SA_core_pe_3_1_Aij_o_reg_6_:CP 4.717e+00
*RC SA_core_pe_3_2_Aij_o_reg_5_:CP 4.524e+00
*RC SA_core_pe_3_1_Aij_o_reg_5_:CP 4.989e+00
*RC SA_core_pe_3_0_Aij_o_reg_5_:CP 4.829e+00
*RC SA_core_pe_3_2_Aij_o_reg_4_:CP 4.634e+00
*RC SA_core_pe_3_1_Aij_o_reg_4_:CP 5.004e+00
*RC SA_core_pe_3_0_Aij_o_reg_4_:CP 4.863e+00
*RC SA_core_pe_3_2_Aij_o_reg_3_:CP 4.599e+00
*RC SA_core_pe_3_0_Aij_o_reg_3_:CP 4.697e+00
*RC SA_core_pe_3_2_Aij_o_reg_2_:CP 4.580e+00
*RC SA_core_pe_3_1_Aij_o_reg_2_:CP 5.075e+00
*RC SA_core_pe_3_0_Aij_o_reg_2_:CP 4.747e+00
*RC SA_core_pe_3_2_Aij_o_reg_1_:CP 4.513e+00
*RC SA_core_pe_3_0_Aij_o_reg_1_:CP 4.778e+00
*RC SA_core_pe_3_3_Cij_o_reg_7_:CP 4.417e+00
*RC SA_core_pe_3_2_Cij_o_reg_7_:CP 4.717e+00
*RC SA_core_pe_3_1_Cij_o_reg_7_:CP 5.029e+00
*RC SA_core_pe_3_0_Cij_o_reg_7_:CP 4.368e+00
*RC SA_core_pe_3_3_Cij_o_reg_6_:CP 4.411e+00
*RC SA_core_pe_3_2_Cij_o_reg_6_:CP 4.735e+00
*RC SA_core_pe_3_1_Cij_o_reg_6_:CP 4.894e+00
*RC SA_core_pe_3_0_Cij_o_reg_6_:CP 4.513e+00
*RC SA_core_pe_3_3_Cij_o_reg_5_:CP 4.381e+00
*RC SA_core_pe_3_2_Cij_o_reg_5_:CP 4.818e+00
*RC SA_core_pe_3_1_Cij_o_reg_5_:CP 4.983e+00
*RC SA_core_pe_3_0_Cij_o_reg_5_:CP 4.619e+00
*RC SA_core_pe_3_2_Cij_o_reg_4_:CP 4.863e+00
*RC SA_core_pe_3_1_Cij_o_reg_4_:CP 4.808e+00
*RC SA_core_pe_3_0_Cij_o_reg_4_:CP 4.691e+00
*RC SA_core_pe_3_3_Cij_o_reg_3_:CP 4.484e+00
*RC SA_core_pe_3_2_Cij_o_reg_3_:CP 4.654e+00
*RC SA_core_pe_3_1_Cij_o_reg_3_:CP 4.878e+00
*RC SA_core_pe_3_0_Cij_o_reg_3_:CP 4.679e+00
*RC SA_core_pe_3_3_Cij_o_reg_2_:CP 4.545e+00
*RC SA_core_pe_3_2_Cij_o_reg_2_:CP 4.641e+00
*RC SA_core_pe_3_1_Cij_o_reg_2_:CP 4.835e+00
*RC SA_core_pe_3_0_Cij_o_reg_2_:CP 4.752e+00
*RC SA_core_pe_3_3_Cij_o_reg_1_:CP 4.457e+00
*RC SA_core_pe_3_2_Cij_o_reg_1_:CP 4.627e+00
*RC SA_core_pe_3_1_Cij_o_reg_1_:CP 4.831e+00
*RC SA_core_pe_3_0_Cij_o_reg_1_:CP 4.650e+00
*RC SA_core_pe_3_3_Cij_o_reg_0_:CP 4.526e+00
*RC SA_core_pe_3_2_Cij_o_reg_0_:CP 4.638e+00
*RC SA_core_pe_3_1_Cij_o_reg_0_:CP 4.751e+00
*RC SA_core_pe_3_0_Cij_o_reg_0_:CP 4.569e+00
*RC SA_core_pe_0_0_Aij_o_reg_7_:CP 4.111e+00
*RC SA_core_pe_0_0_Aij_o_reg_6_:CP 4.119e+00
*RC SA_core_pe_0_0_Aij_o_reg_5_:CP 4.068e+00
*RC SA_core_pe_0_0_Aij_o_reg_4_:CP 4.030e+00
*RC SA_core_pe_0_0_Aij_o_reg_3_:CP 3.945e+00
*RC SA_core_pe_0_0_Aij_o_reg_2_:CP 3.968e+00
*RC SA_core_pe_0_0_Aij_o_reg_1_:CP 4.062e+00
*RC SA_core_pe_0_0_Bij_o_reg_7_:CP 1.026e+00
*RC SA_core_pe_0_0_Bij_o_reg_6_:CP 1.326e+00
*RC SA_core_pe_0_0_Bij_o_reg_5_:CP 1.004e+00
*RC SA_core_pe_0_0_Bij_o_reg_4_:CP 8.567e-01
*RC SA_core_pe_0_0_Bij_o_reg_3_:CP 1.106e+00
*RC SA_core_pe_0_0_Bij_o_reg_2_:CP 9.347e-01
*RC SA_core_pe_0_0_Cij_o_reg_7_:CP 4.093e+00
*RC SA_core_pe_0_0_Cij_o_reg_6_:CP 4.149e+00
*RC SA_core_pe_0_0_Cij_o_reg_5_:CP 2.222e+00
*RC SA_core_pe_0_0_Cij_o_reg_4_:CP 2.281e+00
*RC SA_core_pe_0_0_Cij_o_reg_3_:CP 1.791e+00
*RC SA_core_pe_0_0_Cij_o_reg_2_:CP 1.908e+00
*RC SA_core_pe_0_0_Cij_o_reg_1_:CP 1.574e+00
*RC SA_core_pe_0_0_Cij_o_reg_0_:CP 4.010e+00
*RC SA_A_1_shift_reg_reg_5__7_:CP 5.293e+00
*RC SA_A_1_shift_reg_reg_5__6_:CP 4.999e+00
*RC SA_A_1_shift_reg_reg_5__5_:CP 4.934e+00
*RC SA_A_1_shift_reg_reg_5__4_:CP 4.887e+00
*RC SA_A_1_shift_reg_reg_5__3_:CP 5.474e+00
*RC SA_A_1_shift_reg_reg_5__2_:CP 5.438e+00
*RC SA_A_1_shift_reg_reg_5__1_:CP 5.366e+00
*RC SA_A_1_shift_reg_reg_5__0_:CP 5.192e+00
*RC SA_A_1_shift_reg_reg_4__7_:CP 5.351e+00
*RC SA_A_1_shift_reg_reg_4__6_:CP 4.969e+00
*RC SA_A_1_shift_reg_reg_4__5_:CP 5.031e+00
*RC SA_A_1_shift_reg_reg_4__4_:CP 4.921e+00
*RC SA_A_1_shift_reg_reg_4__3_:CP 5.584e+00
*RC SA_A_1_shift_reg_reg_4__2_:CP 5.516e+00
*RC SA_A_1_shift_reg_reg_4__1_:CP 5.444e+00
*RC SA_A_1_shift_reg_reg_4__0_:CP 5.364e+00
*RC SA_A_1_shift_reg_reg_3__7_:CP 5.442e+00
*RC SA_A_1_shift_reg_reg_3__6_:CP 5.035e+00
*RC SA_A_1_shift_reg_reg_3__5_:CP 5.077e+00
*RC SA_A_1_shift_reg_reg_3__4_:CP 4.965e+00
*RC SA_A_1_shift_reg_reg_3__3_:CP 5.712e+00
*RC SA_A_1_shift_reg_reg_3__2_:CP 5.658e+00
*RC SA_A_1_shift_reg_reg_3__1_:CP 5.572e+00
*RC SA_A_1_shift_reg_reg_3__0_:CP 5.414e+00
*RC SA_A_1_shift_reg_reg_2__7_:CP 5.550e+00
*RC SA_A_1_shift_reg_reg_2__6_:CP 5.106e+00
*RC SA_A_1_shift_reg_reg_2__5_:CP 5.104e+00
*RC SA_A_1_shift_reg_reg_2__4_:CP 4.985e+00
*RC SA_A_1_shift_reg_reg_2__3_:CP 5.765e+00
*RC SA_A_1_shift_reg_reg_2__2_:CP 5.852e+00
*RC SA_A_1_shift_reg_reg_2__1_:CP 5.678e+00
*RC SA_A_1_shift_reg_reg_2__0_:CP 5.519e+00
*RC SA_A_1_shift_reg_reg_1__7_:CP 5.616e+00
*RC SA_A_1_shift_reg_reg_1__6_:CP 5.064e+00
*RC SA_A_1_shift_reg_reg_1__5_:CP 5.188e+00
*RC SA_A_1_shift_reg_reg_1__4_:CP 5.026e+00
*RC SA_A_1_shift_reg_reg_1__3_:CP 5.990e+00
*RC SA_A_1_shift_reg_reg_1__2_:CP 5.946e+00
*RC SA_A_1_shift_reg_reg_1__1_:CP 5.791e+00
*RC SA_A_1_shift_reg_reg_1__0_:CP 5.642e+00
*RC SA_A_2_shift_reg_reg_5__7_:CP 4.025e+00
*RC SA_A_2_shift_reg_reg_5__6_:CP 3.975e+00
*RC SA_A_2_shift_reg_reg_5__5_:CP 3.990e+00
*RC SA_A_2_shift_reg_reg_5__4_:CP 3.967e+00
*RC SA_A_2_shift_reg_reg_5__3_:CP 4.021e+00
*RC SA_A_2_shift_reg_reg_5__2_:CP 4.027e+00
*RC SA_A_2_shift_reg_reg_5__1_:CP 3.981e+00
*RC SA_A_2_shift_reg_reg_5__0_:CP 4.000e+00
*RC SA_A_2_shift_reg_reg_4__7_:CP 4.033e+00