*SPEF "IEEE 1481-1999"
*DESIGN "systolic_array"
*DATE "Thu Feb  9 12:11:29 2023"
*VENDOR "SYNOPSYS INC"
*PROGRAM "Synopsys Design Compiler cmos"
*VERSION "L-2016.03-SP5"
*DESIGN_FLOW "SYNTHESIS"
*DIVIDER /
*DELIMITER :
*BUS_DELIMITER []
*T_UNIT 1.0 NS
*C_UNIT 1.0 PF
*R_UNIT 1.0 KOHM
*L_UNIT 1.0 HENRY

*PORTS

clk_p I *L 0.000e+00 *S 0.000e+00 0.000e+00 
rstn_p I *L 0.000e+00 *S 0.000e+00 0.000e+00 
en_p I *L 0.000e+00 *S 0.000e+00 0.000e+00 
p_shift_in\[7\] I *L 0.000e+00 *S 0.000e+00 0.000e+00 
p_shift_in\[6\] I *L 0.000e+00 *S 0.000e+00 0.000e+00 
p_shift_in\[5\] I *L 0.000e+00 *S 0.000e+00 0.000e+00 
p_shift_in\[4\] I *L 0.000e+00 *S 0.000e+00 0.000e+00 
p_shift_in\[3\] I *L 0.000e+00 *S 0.000e+00 0.000e+00 
p_shift_in\[2\] I *L 0.000e+00 *S 0.000e+00 0.000e+00 
p_shift_in\[1\] I *L 0.000e+00 *S 0.000e+00 0.000e+00 
p_shift_in\[0\] I *L 0.000e+00 *S 0.000e+00 0.000e+00 
p_shift_out\[7\] O *L 1.033e-01 *S 6.141e-01 6.853e-01 
p_shift_out\[6\] O *L 1.033e-01 *S 6.141e-01 6.853e-01 
p_shift_out\[5\] O *L 1.033e-01 *S 6.141e-01 6.853e-01 
p_shift_out\[4\] O *L 1.033e-01 *S 6.141e-01 6.853e-01 
p_shift_out\[3\] O *L 1.033e-01 *S 6.141e-01 6.853e-01 
p_shift_out\[2\] O *L 1.033e-01 *S 6.141e-01 6.853e-01 
p_shift_out\[1\] O *L 1.033e-01 *S 6.141e-01 6.853e-01 
p_shift_out\[0\] O *L 1.033e-01 *S 6.141e-01 6.853e-01 
ack_p O *L 1.033e-01 *S 6.141e-01 6.853e-01 

*R_NET clk_p 2.301e+00
*DRIVER clk_p
*CELL NULL
*C2_R1_C1 1.151e+00 2.514e-02 1.151e+00 
*LOADS
*RC u_pad_clk:PAD 3.857e-02
*DRIVER u_pad_clk:PAD
*CELL PDDW0208SCDG
*C2_R1_C1 1.151e+00 2.514e-02 1.151e+00 
*LOADS
*END

*R_NET rstn_p 2.301e+00
*DRIVER rstn_p
*CELL NULL
*C2_R1_C1 1.151e+00 2.514e-02 1.151e+00 
*LOADS
*RC u_pad_rst_n:PAD 3.857e-02
*DRIVER u_pad_rst_n:PAD
*CELL PDUW0208SCDG
*C2_R1_C1 1.151e+00 2.514e-02 1.151e+00 
*LOADS
*END

*R_NET en_p 2.301e+00
*DRIVER en_p
*CELL NULL
*C2_R1_C1 1.151e+00 2.514e-02 1.151e+00 
*LOADS
*RC u_pad_data_in_8:PAD 3.857e-02
*DRIVER u_pad_data_in_8:PAD
*CELL PDDW0208CDG
*C2_R1_C1 1.151e+00 2.514e-02 1.151e+00 
*LOADS
*END

*R_NET p_shift_in\[7\] 2.301e+00
*DRIVER p_shift_in\[7\]
*CELL NULL
*C2_R1_C1 1.151e+00 2.514e-02 1.151e+00 
*LOADS
*RC u_pad_data_in_7:PAD 3.857e-02
*DRIVER u_pad_data_in_7:PAD
*CELL PDDW0208CDG
*C2_R1_C1 1.151e+00 2.514e-02 1.151e+00 
*LOADS
*END

*R_NET p_shift_in\[6\] 2.301e+00
*DRIVER p_shift_in\[6\]
*CELL NULL
*C2_R1_C1 1.151e+00 2.514e-02 1.151e+00 
*LOADS
*RC u_pad_data_in_6:PAD 3.857e-02
*DRIVER u_pad_data_in_6:PAD
*CELL PDDW0208CDG
*C2_R1_C1 1.151e+00 2.514e-02 1.151e+00 
*LOADS
*END

*R_NET p_shift_in\[5\] 2.301e+00
*DRIVER p_shift_in\[5\]
*CELL NULL
*C2_R1_C1 1.151e+00 2.514e-02 1.151e+00 
*LOADS
*RC u_pad_data_in_5:PAD 3.857e-02
*DRIVER u_pad_data_in_5:PAD
*CELL PDDW0208CDG
*C2_R1_C1 1.151e+00 2.514e-02 1.151e+00 
*LOADS
*END

*R_NET p_shift_in\[4\] 2.301e+00
*DRIVER p_shift_in\[4\]
*CELL NULL
*C2_R1_C1 1.151e+00 2.514e-02 1.151e+00 
*LOADS
*RC u_pad_data_in_4:PAD 3.857e-02
*DRIVER u_pad_data_in_4:PAD
*CELL PDDW0208CDG
*C2_R1_C1 1.151e+00 2.514e-02 1.151e+00 
*LOADS
*END

*R_NET p_shift_in\[3\] 2.301e+00
*DRIVER p_shift_in\[3\]
*CELL NULL
*C2_R1_C1 1.151e+00 2.514e-02 1.151e+00 
*LOADS
*RC u_pad_data_in_3:PAD 3.857e-02
*DRIVER u_pad_data_in_3:PAD
*CELL PDDW0208CDG
*C2_R1_C1 1.151e+00 2.514e-02 1.151e+00 
*LOADS
*END

*R_NET p_shift_in\[2\] 2.301e+00
*DRIVER p_shift_in\[2\]
*CELL NULL
*C2_R1_C1 1.151e+00 2.514e-02 1.151e+00 
*LOADS
*RC u_pad_data_in_2:PAD 3.857e-02
*DRIVER u_pad_data_in_2:PAD
*CELL PDDW0208CDG
*C2_R1_C1 1.151e+00 2.514e-02 1.151e+00 
*LOADS
*END

*R_NET p_shift_in\[1\] 2.301e+00
*DRIVER p_shift_in\[1\]
*CELL NULL
*C2_R1_C1 1.151e+00 2.514e-02 1.151e+00 
*LOADS
*RC u_pad_data_in_1:PAD 3.857e-02
*DRIVER u_pad_data_in_1:PAD
*CELL PDDW0208CDG
*C2_R1_C1 1.151e+00 2.514e-02 1.151e+00 
*LOADS
*END

*R_NET p_shift_in\[0\] 2.301e+00
*DRIVER p_shift_in\[0\]
*CELL NULL
*C2_R1_C1 1.151e+00 2.514e-02 1.151e+00 
*LOADS
*RC u_pad_data_in_0:PAD 3.857e-02
*DRIVER u_pad_data_in_0:PAD
*CELL PDDW0208CDG
*C2_R1_C1 1.151e+00 2.514e-02 1.151e+00 
*LOADS
*END

*R_NET p_shift_out\[7\] 2.405e+00
*DRIVER u_pad_data_out_7:PAD
*CELL PDDW0208CDG
*C2_R1_C1 1.202e+00 5.028e-02 1.202e+00 
*LOADS
*RC p_shift_out\[7\] 2.516e-02
*END

*R_NET p_shift_out\[6\] 2.405e+00
*DRIVER u_pad_data_out_6:PAD
*CELL PDDW0208CDG
*C2_R1_C1 1.202e+00 5.028e-02 1.202e+00 
*LOADS
*RC p_shift_out\[6\] 2.516e-02
*END

*R_NET p_shift_out\[5\] 2.405e+00
*DRIVER u_pad_data_out_5:PAD
*CELL PDDW0208CDG
*C2_R1_C1 1.202e+00 5.028e-02 1.202e+00 
*LOADS
*RC p_shift_out\[5\] 2.516e-02
*END

*R_NET p_shift_out\[4\] 2.405e+00
*DRIVER u_pad_data_out_4:PAD
*CELL PDDW0208CDG
*C2_R1_C1 1.202e+00 5.028e-02 1.202e+00 
*LOADS
*RC p_shift_out\[4\] 2.516e-02
*END

*R_NET p_shift_out\[3\] 2.405e+00
*DRIVER u_pad_data_out_3:PAD
*CELL PDDW0208CDG
*C2_R1_C1 1.202e+00 5.028e-02 1.202e+00 
*LOADS
*RC p_shift_out\[3\] 2.516e-02
*END

*R_NET p_shift_out\[2\] 2.405e+00
*DRIVER u_pad_data_out_2:PAD
*CELL PDDW0208CDG
*C2_R1_C1 1.202e+00 5.028e-02 1.202e+00 
*LOADS
*RC p_shift_out\[2\] 2.516e-02
*END

*R_NET p_shift_out\[1\] 2.405e+00
*DRIVER u_pad_data_out_1:PAD
*CELL PDDW0208CDG
*C2_R1_C1 1.202e+00 5.028e-02 1.202e+00 
*LOADS
*RC p_shift_out\[1\] 2.516e-02
*END

*R_NET p_shift_out\[0\] 2.405e+00
*DRIVER u_pad_data_out_0:PAD
*CELL PDDW0208CDG
*C2_R1_C1 1.202e+00 5.028e-02 1.202e+00 
*LOADS
*RC p_shift_out\[0\] 2.516e-02
*END

*R_NET ack_p 2.405e+00
*DRIVER u_pad_data_out_8:PAD
*CELL PDDW0208CDG
*C2_R1_C1 1.202e+00 5.028e-02 1.202e+00 
*LOADS
*RC ack_p 2.516e-02
*END

*R_NET clk 3.722e+00
*DRIVER u_pad_clk:C
*CELL PDDW0208SCDG
*C2_R1_C1 1.861e+00 1.803e+01 1.861e+00 
*LOADS
*RC SA_core_pe_3_2_Aij_o_reg_0_:CP 4.947e+00
*RC SA_core_pe_0_3_Cij_o_reg_7_:CP 4.179e+00
*RC SA_ctrl_state_load_id_reg_1_:CP 4.564e+00
*RC SA_core_pe_0_3_Cij_o_reg_6_:CP 4.179e+00
*RC SA_core_pe_0_3_Cij_o_reg_5_:CP 4.120e+00
*RC SA_core_pe_0_3_Cij_o_reg_4_:CP 4.128e+00
*RC SA_core_pe_3_3_Cij_o_reg_2_:CP 4.645e+00
*RC SA_core_pe_0_3_Cij_o_reg_3_:CP 3.969e+00
*RC SA_core_pe_3_1_Aij_o_reg_0_:CP 5.019e+00
*RC SA_core_pe_2_0_Aij_o_reg_0_:CP 4.203e+00
*RC SA_core_pe_1_1_Aij_o_reg_0_:CP 4.000e-01
*RC SA_B_2_shift_reg_reg_6__0_:CP 4.471e+00
*RC SA_core_pe_1_3_Bij_o_reg_0_:CP 4.274e+00
*RC SA_core_pe_3_3_Cij_o_reg_0_:CP 4.725e+00
*RC SA_B_3_shift_reg_reg_6__0_:CP 4.226e+00
*RC SA_core_pe_1_0_Bij_o_reg_1_:CP 4.005e+00
*RC SA_core_pe_0_0_Bij_o_reg_1_:CP 3.987e+00
*RC SA_core_pe_1_3_Bij_o_reg_1_:CP 4.332e+00
*RC SA_core_pe_1_2_Aij_o_reg_0_:CP 1.422e+00
*RC SA_core_pe_0_2_Aij_o_reg_0_:CP 3.958e+00
*RC SA_core_pe_0_3_Cij_o_reg_1_:CP 4.037e+00
*RC SA_B_1_shift_reg_reg_6__1_:CP 5.329e+00
*RC SA_core_pe_1_1_Cij_o_reg_6_:CP 5.377e-01
*RC SA_core_pe_0_0_Cij_o_reg_5_:CP 4.456e+00
*RC SA_core_pe_2_0_Aij_o_reg_7_:CP 4.146e+00
*RC SA_B_1_shift_reg_reg_6__7_:CP 5.073e+00
*RC SA_A_0_shift_reg_reg_6__2_:CP 4.449e+00
*RC SA_core_pe_2_0_Cij_o_reg_7_:CP 4.350e+00
*RC SA_core_pe_0_2_Aij_o_reg_2_:CP 1.322e+00
*RC SA_core_pe_2_2_Bij_o_reg_5_:CP 4.758e+00
*RC SA_core_pe_3_3_Cij_o_reg_7_:CP 4.893e+00
*RC SA_B_3_shift_reg_reg_6__7_:CP 4.596e+00
*RC SA_B_2_shift_reg_reg_6__7_:CP 4.493e+00
*RC SA_core_pe_1_2_Bij_o_reg_7_:CP 1.478e+00
*RC SA_core_pe_1_1_Bij_o_reg_7_:CP 4.013e+00
*RC SA_core_pe_0_2_Bij_o_reg_6_:CP 1.116e+00
*RC SA_ctrl_state_compute_out_reg_0_:CP 4.011e+00
*RC SA_core_pe_2_3_Bij_o_reg_6_:CP 4.615e+00
*RC SA_core_pe_2_2_Bij_o_reg_3_:CP 4.747e+00
*RC SA_core_pe_2_3_Bij_o_reg_4_:CP 4.687e+00
*RC SA_core_pe_2_3_Bij_o_reg_3_:CP 4.632e+00
*RC SA_ctrl_state_load_row_reg_1_:CP 4.333e+00
*RC SA_A_2_shift_reg_reg_6__7_:CP 4.242e+00
*RC SA_A_1_shift_reg_reg_6__7_:CP 4.071e+00
*RC SA_A_3_shift_reg_reg_6__7_:CP 4.611e+00
*RC SA_ctrl_state_compute_out_reg_1_:CP 4.032e+00
*RC SA_B_0_shift_reg_reg_6__7_:CP 4.539e+00
*RC SA_core_pe_1_2_Bij_o_reg_6_:CP 1.090e+00
*RC SA_core_pe_2_1_Aij_o_reg_6_:CP 4.285e+00
*RC SA_core_pe_2_0_Aij_o_reg_6_:CP 4.209e+00
*RC SA_core_pe_3_3_Cij_o_reg_6_:CP 4.822e+00
*RC SA_core_pe_2_3_Bij_o_reg_5_:CP 4.593e+00
*RC SA_core_pe_1_0_Cij_o_reg_6_:CP 1.630e+00
*RC SA_core_pe_2_0_Cij_o_reg_6_:CP 4.414e+00
*RC SA_ctrl_state_load_row_reg_0_:CP 4.384e+00
*RC SA_B_3_shift_reg_reg_6__6_:CP 4.519e+00
*RC SA_B_1_shift_reg_reg_6__6_:CP 5.360e+00
*RC SA_B_2_shift_reg_reg_6__6_:CP 4.479e+00
*RC SA_B_0_shift_reg_reg_6__6_:CP 4.718e+00
*RC SA_core_pe_1_1_Cij_o_reg_5_:CP 1.088e+00
*RC SA_core_pe_2_0_Cij_o_reg_5_:CP 4.429e+00
*RC SA_core_pe_1_1_Cij_o_reg_4_:CP 8.769e-01
*RC SA_A_2_shift_reg_reg_6__6_:CP 4.386e+00
*RC SA_ctrl_state_load_id_reg_2_:CP 4.523e+00
*RC SA_ctrl_state_overall_reg_1_:CP 4.146e+00
*RC SA_core_pe_2_0_Cij_o_reg_4_:CP 4.425e+00
*RC SA_A_2_shift_reg_reg_6__4_:CP 4.283e+00
*RC SA_A_2_shift_reg_reg_6__5_:CP 4.345e+00
*RC SA_core_pe_2_2_Cij_o_reg_3_:CP 4.000e+00
*RC SA_core_pe_1_1_Cij_o_reg_3_:CP 9.079e-01
*RC SA_B_2_shift_reg_reg_6__5_:CP 4.489e+00
*RC SA_B_2_shift_reg_reg_6__4_:CP 4.500e+00
*RC SA_B_3_shift_reg_reg_6__5_:CP 4.513e+00
*RC SA_B_3_shift_reg_reg_6__4_:CP 4.568e+00
*RC SA_B_0_shift_reg_reg_6__4_:CP 4.951e+00
*RC SA_B_0_shift_reg_reg_6__5_:CP 4.860e+00
*RC SA_core_pe_3_3_Cij_o_reg_5_:CP 4.717e+00
*RC SA_B_1_shift_reg_reg_6__4_:CP 5.186e+00
*RC SA_ctrl_state_load_id_reg_0_:CP 4.561e+00
*RC SA_core_pe_0_1_Bij_o_reg_1_:CP 9.235e-01
*RC SA_core_pe_1_2_Bij_o_reg_1_:CP 1.242e+00
*RC SA_B_1_shift_reg_reg_6__5_:CP 5.426e+00
*RC SA_core_pe_2_2_Cij_o_reg_2_:CP 3.973e+00
*RC SA_core_pe_3_3_Cij_o_reg_4_:CP 4.780e+00
*RC SA_B_3_shift_reg_reg_6__3_:CP 4.563e+00
*RC SA_B_2_shift_reg_reg_6__3_:CP 4.496e+00
*RC SA_B_1_shift_reg_reg_6__3_:CP 5.252e+00
*RC SA_core_pe_0_3_Cij_o_reg_2_:CP 3.994e+00
*RC SA_core_pe_3_3_Cij_o_reg_3_:CP 4.663e+00
*RC SA_core_pe_0_2_Bij_o_reg_2_:CP 8.933e-01
*RC SA_core_pe_2_3_Bij_o_reg_2_:CP 4.481e+00
*RC SA_core_pe_2_2_Bij_o_reg_2_:CP 4.681e+00
*RC SA_A_3_shift_reg_reg_6__0_:CP 4.456e+00
*RC SA_core_pe_2_0_Bij_o_reg_1_:CP 4.423e+00
*RC SA_core_pe_2_0_Cij_o_reg_3_:CP 4.415e+00
*RC SA_B_3_shift_reg_reg_6__2_:CP 4.495e+00
*RC SA_B_2_shift_reg_reg_6__2_:CP 4.503e+00
*RC SA_core_pe_2_3_Cij_o_reg_2_:CP 4.366e+00
*RC SA_A_2_shift_reg_reg_6__2_:CP 4.075e+00
*RC SA_A_1_shift_reg_reg_6__2_:CP 2.154e+00
*RC SA_A_1_shift_reg_reg_6__3_:CP 3.981e+00
*RC SA_A_2_shift_reg_reg_6__3_:CP 4.288e+00
*RC SA_B_0_shift_reg_reg_6__2_:CP 4.903e+00
*RC SA_A_3_shift_reg_reg_6__2_:CP 4.579e+00
*RC SA_A_3_shift_reg_reg_6__3_:CP 4.540e+00
*RC SA_B_1_shift_reg_reg_6__2_:CP 5.282e+00
*RC SA_B_0_shift_reg_reg_6__3_:CP 4.774e+00
*RC SA_core_pe_2_1_Aij_o_reg_0_:CP 1.394e+00
*RC SA_core_pe_2_3_Bij_o_reg_0_:CP 4.606e+00
*RC SA_core_pe_3_0_Aij_o_reg_0_:CP 4.618e+00
*RC SA_core_pe_1_1_Bij_o_reg_1_:CP 1.011e+00
*RC SA_core_pe_0_2_Bij_o_reg_1_:CP 9.844e-01
*RC SA_A_3_shift_reg_reg_6__1_:CP 4.429e+00
*RC SA_core_pe_2_3_Bij_o_reg_1_:CP 4.544e+00
*RC SA_core_pe_2_2_Bij_o_reg_1_:CP 4.691e+00
*RC SA_core_pe_0_1_Bij_o_reg_0_:CP 1.230e+00
*RC SA_core_pe_0_2_Bij_o_reg_0_:CP 1.038e+00
*RC SA_core_pe_2_2_Bij_o_reg_0_:CP 4.714e+00
*RC SA_A_2_shift_reg_reg_6__1_:CP 4.209e+00
*RC SA_B_2_shift_reg_reg_6__1_:CP 4.495e+00
*RC SA_core_pe_0_3_Cij_o_reg_0_:CP 4.077e+00
*RC SA_B_1_shift_reg_reg_6__0_:CP 5.301e+00
*RC SA_B_0_shift_reg_reg_6__0_:CP 4.843e+00
*RC SA_A_2_shift_reg_reg_6__0_:CP 2.933e+00
*RC SA_core_pe_1_0_Aij_o_reg_0_:CP 1.241e+00
*RC SA_core_pe_2_1_Bij_o_reg_1_:CP 4.503e+00
*RC SA_core_pe_2_3_Cij_o_reg_0_:CP 4.305e+00
*RC SA_A_0_shift_reg_reg_6__0_:CP 4.175e+00
*RC SA_B_3_shift_reg_reg_6__1_:CP 4.268e+00
*RC SA_core_pe_3_3_Cij_o_reg_1_:CP 4.608e+00
*RC SA_A_1_shift_reg_reg_6__0_:CP 1.835e+00
*RC SA_B_0_shift_reg_reg_6__1_:CP 4.982e+00
*RC SA_core_pe_0_3_Bij_o_reg_1_:CP 1.258e+00
*RC SA_core_pe_0_0_Aij_o_reg_0_:CP 4.143e+00
*RC SA_core_pe_2_2_Aij_o_reg_0_:CP 4.429e+00
*RC SA_core_pe_1_0_Bij_o_reg_0_:CP 3.983e+00
*RC SA_core_pe_0_3_Bij_o_reg_6_:CP 1.525e+00
*RC SA_core_pe_0_0_Cij_o_reg_4_:CP 4.461e+00
*RC SA_core_pe_0_2_Bij_o_reg_7_:CP 1.376e+00
*RC SA_core_pe_1_0_Aij_o_reg_3_:CP 1.364e+00
*RC SA_core_pe_1_0_Aij_o_reg_6_:CP 1.384e+00
*RC SA_core_pe_2_0_Aij_o_reg_3_:CP 4.150e+00
*RC SA_core_pe_2_2_Aij_o_reg_2_:CP 4.393e+00
*RC SA_core_pe_0_0_Bij_o_reg_6_:CP 4.025e+00
*RC SA_core_pe_1_0_Cij_o_reg_7_:CP 1.378e+00
*RC SA_core_pe_2_2_Bij_o_reg_4_:CP 4.721e+00
*RC SA_ctrl_state_compute_pump_reg_2_:CP 4.086e+00
*RC SA_core_pe_0_2_Aij_o_reg_7_:CP 4.214e+00
*RC SA_core_pe_0_1_Aij_o_reg_7_:CP 4.178e+00
*RC SA_core_pe_0_2_Aij_o_reg_6_:CP 4.188e+00
*RC SA_core_pe_0_1_Aij_o_reg_6_:CP 4.104e+00
*RC SA_core_pe_0_2_Aij_o_reg_5_:CP 4.151e+00
*RC SA_core_pe_0_1_Aij_o_reg_5_:CP 4.053e+00
*RC SA_core_pe_0_2_Aij_o_reg_4_:CP 1.463e+00
*RC SA_core_pe_0_1_Aij_o_reg_4_:CP 3.973e+00
*RC SA_core_pe_0_2_Aij_o_reg_3_:CP 1.298e+00
*RC SA_core_pe_0_1_Aij_o_reg_3_:CP 1.993e+00
*RC SA_core_pe_0_1_Aij_o_reg_2_:CP 2.089e+00
*RC SA_core_pe_0_2_Aij_o_reg_1_:CP 1.443e+00
*RC SA_core_pe_0_1_Aij_o_reg_1_:CP 1.906e+00
*RC SA_core_pe_0_1_Aij_o_reg_0_:CP 1.829e+00
*RC SA_core_pe_2_1_Bij_o_reg_7_:CP 4.691e+00
*RC SA_core_pe_0_1_Bij_o_reg_7_:CP 1.407e+00
*RC SA_core_pe_2_1_Bij_o_reg_6_:CP 4.464e+00
*RC SA_core_pe_1_1_Bij_o_reg_6_:CP 1.621e+00
*RC SA_core_pe_0_1_Bij_o_reg_6_:CP 1.260e+00
*RC SA_core_pe_2_1_Bij_o_reg_5_:CP 4.497e+00
*RC SA_core_pe_1_1_Bij_o_reg_5_:CP 1.401e+00
*RC SA_core_pe_0_1_Bij_o_reg_5_:CP 1.215e+00
*RC SA_core_pe_2_1_Bij_o_reg_4_:CP 4.532e+00
*RC SA_core_pe_1_1_Bij_o_reg_4_:CP 8.692e-01
*RC SA_core_pe_0_1_Bij_o_reg_4_:CP 1.152e+00
*RC SA_core_pe_2_1_Bij_o_reg_3_:CP 4.581e+00
*RC SA_core_pe_1_1_Bij_o_reg_3_:CP 9.496e-01
*RC SA_core_pe_0_1_Bij_o_reg_3_:CP 1.186e+00
*RC SA_core_pe_2_1_Bij_o_reg_2_:CP 4.546e+00
*RC SA_core_pe_1_1_Bij_o_reg_2_:CP 1.045e+00
*RC SA_core_pe_0_1_Bij_o_reg_2_:CP 9.883e-01
*RC SA_core_pe_2_1_Bij_o_reg_0_:CP 4.556e+00
*RC SA_core_pe_1_1_Bij_o_reg_0_:CP 1.469e+00
*RC SA_core_pe_0_2_Cij_o_reg_7_:CP 4.072e+00
*RC SA_core_pe_0_1_Cij_o_reg_7_:CP 4.379e+00
*RC SA_core_pe_0_2_Cij_o_reg_6_:CP 4.091e+00
*RC SA_core_pe_0_1_Cij_o_reg_6_:CP 4.251e+00
*RC SA_core_pe_0_2_Cij_o_reg_5_:CP 4.064e+00
*RC SA_core_pe_0_1_Cij_o_reg_5_:CP 4.094e+00
*RC SA_core_pe_0_2_Cij_o_reg_4_:CP 4.025e+00
*RC SA_core_pe_0_1_Cij_o_reg_4_:CP 4.016e+00
*RC SA_core_pe_0_2_Cij_o_reg_3_:CP 3.992e+00
*RC SA_core_pe_0_1_Cij_o_reg_3_:CP 4.024e+00
*RC SA_core_pe_0_2_Cij_o_reg_2_:CP 1.976e+00
*RC SA_core_pe_0_1_Cij_o_reg_2_:CP 4.025e+00
*RC SA_core_pe_0_2_Cij_o_reg_1_:CP 3.977e+00
*RC SA_core_pe_0_1_Cij_o_reg_1_:CP 2.064e+00
*RC SA_core_pe_0_2_Cij_o_reg_0_:CP 4.083e+00
*RC SA_core_pe_0_1_Cij_o_reg_0_:CP 4.100e+00
*RC SA_core_pe_2_2_Bij_o_reg_7_:CP 4.721e+00
*RC SA_core_pe_2_2_Bij_o_reg_6_:CP 4.801e+00
*RC SA_core_pe_1_2_Bij_o_reg_5_:CP 1.309e+00
*RC SA_core_pe_0_2_Bij_o_reg_5_:CP 8.118e-01
*RC SA_core_pe_1_2_Bij_o_reg_4_:CP 1.170e+00
*RC SA_core_pe_0_2_Bij_o_reg_4_:CP 7.314e-01
*RC SA_core_pe_1_2_Bij_o_reg_3_:CP 1.167e+00
*RC SA_core_pe_0_2_Bij_o_reg_3_:CP 8.123e-01
*RC SA_core_pe_1_2_Bij_o_reg_2_:CP 1.319e+00
*RC SA_core_pe_1_2_Bij_o_reg_0_:CP 3.983e+00
*RC SA_core_pe_2_3_Bij_o_reg_7_:CP 4.562e+00
*RC SA_core_pe_1_3_Bij_o_reg_7_:CP 4.095e+00
*RC SA_core_pe_0_3_Bij_o_reg_7_:CP 4.078e+00
*RC SA_core_pe_1_3_Bij_o_reg_6_:CP 4.316e+00
*RC SA_core_pe_1_3_Bij_o_reg_5_:CP 4.371e+00
*RC SA_core_pe_0_3_Bij_o_reg_5_:CP 3.964e+00
*RC SA_core_pe_1_3_Bij_o_reg_4_:CP 4.324e+00
*RC SA_core_pe_0_3_Bij_o_reg_4_:CP 1.310e+00
*RC SA_core_pe_1_3_Bij_o_reg_3_:CP 4.353e+00
*RC SA_core_pe_0_3_Bij_o_reg_3_:CP 1.417e+00
*RC SA_core_pe_1_3_Bij_o_reg_2_:CP 4.306e+00
*RC SA_core_pe_0_3_Bij_o_reg_2_:CP 1.216e+00
*RC SA_core_pe_0_3_Bij_o_reg_0_:CP 1.063e+00
*RC SA_core_pe_1_2_Aij_o_reg_7_:CP 1.132e+00
*RC SA_core_pe_1_1_Aij_o_reg_7_:CP 7.849e-01
*RC SA_core_pe_1_0_Aij_o_reg_7_:CP 1.512e+00
*RC SA_core_pe_1_2_Aij_o_reg_6_:CP 1.314e+00
*RC SA_core_pe_1_1_Aij_o_reg_6_:CP 8.493e-01
*RC SA_core_pe_1_2_Aij_o_reg_5_:CP 3.938e+00
*RC SA_core_pe_1_1_Aij_o_reg_5_:CP 1.819e-01
*RC SA_core_pe_1_0_Aij_o_reg_5_:CP 1.368e+00
*RC SA_core_pe_1_2_Aij_o_reg_4_:CP 3.940e+00
*RC SA_core_pe_1_1_Aij_o_reg_4_:CP 1.865e-01
*RC SA_core_pe_1_0_Aij_o_reg_4_:CP 1.219e+00
*RC SA_core_pe_1_2_Aij_o_reg_3_:CP 1.528e+00
*RC SA_core_pe_1_1_Aij_o_reg_3_:CP 5.493e-02
*RC SA_core_pe_1_2_Aij_o_reg_2_:CP 3.960e+00
*RC SA_core_pe_1_1_Aij_o_reg_2_:CP 1.657e-01
*RC SA_core_pe_1_0_Aij_o_reg_2_:CP 1.525e+00
*RC SA_core_pe_1_2_Aij_o_reg_1_:CP 1.150e+00
*RC SA_core_pe_1_1_Aij_o_reg_1_:CP 1.113e-01
*RC SA_core_pe_1_0_Aij_o_reg_1_:CP 1.242e+00
*RC SA_core_pe_2_0_Bij_o_reg_7_:CP 4.257e+00
*RC SA_core_pe_1_0_Bij_o_reg_7_:CP 4.094e+00
*RC SA_core_pe_2_0_Bij_o_reg_6_:CP 4.289e+00
*RC SA_core_pe_1_0_Bij_o_reg_6_:CP 4.103e+00
*RC SA_core_pe_2_0_Bij_o_reg_5_:CP 4.319e+00
*RC SA_core_pe_1_0_Bij_o_reg_5_:CP 4.025e+00
*RC SA_core_pe_2_0_Bij_o_reg_4_:CP 4.369e+00
*RC SA_core_pe_1_0_Bij_o_reg_4_:CP 4.059e+00
*RC SA_core_pe_2_0_Bij_o_reg_3_:CP 4.321e+00
*RC SA_core_pe_1_0_Bij_o_reg_3_:CP 2.043e+00
*RC SA_core_pe_2_0_Bij_o_reg_2_:CP 4.416e+00
*RC SA_core_pe_1_0_Bij_o_reg_2_:CP 4.056e+00
*RC SA_core_pe_2_0_Bij_o_reg_0_:CP 4.358e+00
*RC SA_core_pe_1_3_Cij_o_reg_7_:CP 1.275e+00
*RC SA_core_pe_1_2_Cij_o_reg_7_:CP 9.034e-01
*RC SA_core_pe_1_1_Cij_o_reg_7_:CP 1.094e+00
*RC SA_core_pe_1_3_Cij_o_reg_6_:CP 1.378e+00
*RC SA_core_pe_1_2_Cij_o_reg_6_:CP 1.044e+00
*RC SA_core_pe_1_3_Cij_o_reg_5_:CP 3.968e+00
*RC SA_core_pe_1_2_Cij_o_reg_5_:CP 1.211e+00
*RC SA_core_pe_1_0_Cij_o_reg_5_:CP 1.371e+00
*RC SA_core_pe_1_3_Cij_o_reg_4_:CP 3.979e+00
*RC SA_core_pe_1_2_Cij_o_reg_4_:CP 1.165e+00
*RC SA_core_pe_1_0_Cij_o_reg_4_:CP 1.396e+00
*RC SA_core_pe_1_3_Cij_o_reg_3_:CP 4.012e+00
*RC SA_core_pe_1_2_Cij_o_reg_3_:CP 1.264e+00
*RC SA_core_pe_1_0_Cij_o_reg_3_:CP 1.325e+00
*RC SA_core_pe_1_3_Cij_o_reg_2_:CP 3.994e+00
*RC SA_core_pe_1_2_Cij_o_reg_2_:CP 1.338e+00
*RC SA_core_pe_1_1_Cij_o_reg_2_:CP 8.186e-01
*RC SA_core_pe_1_0_Cij_o_reg_2_:CP 1.193e+00
*RC SA_core_pe_1_3_Cij_o_reg_1_:CP 3.940e+00
*RC SA_core_pe_1_2_Cij_o_reg_1_:CP 1.198e+00
*RC SA_core_pe_1_1_Cij_o_reg_1_:CP 7.529e-01
*RC SA_core_pe_1_0_Cij_o_reg_1_:CP 9.109e-01
*RC SA_core_pe_1_3_Cij_o_reg_0_:CP 1.335e+00
*RC SA_core_pe_1_2_Cij_o_reg_0_:CP 9.670e-01
*RC SA_core_pe_1_1_Cij_o_reg_0_:CP 6.922e-01
*RC SA_core_pe_1_0_Cij_o_reg_0_:CP 1.008e+00
*RC SA_core_pe_2_2_Aij_o_reg_7_:CP 4.363e+00
*RC SA_core_pe_2_1_Aij_o_reg_7_:CP 4.322e+00
*RC SA_core_pe_2_2_Aij_o_reg_6_:CP 4.348e+00
*RC SA_core_pe_2_2_Aij_o_reg_5_:CP 4.377e+00
*RC SA_core_pe_2_1_Aij_o_reg_5_:CP 1.409e+00
*RC SA_core_pe_2_0_Aij_o_reg_5_:CP 4.066e+00
*RC SA_core_pe_2_2_Aij_o_reg_4_:CP 4.428e+00
*RC SA_core_pe_2_1_Aij_o_reg_4_:CP 1.578e+00
*RC SA_core_pe_2_0_Aij_o_reg_4_:CP 4.124e+00
*RC SA_core_pe_2_2_Aij_o_reg_3_:CP 4.490e+00
*RC SA_core_pe_2_1_Aij_o_reg_3_:CP 1.467e+00
*RC SA_core_pe_2_1_Aij_o_reg_2_:CP 3.953e+00
*RC SA_core_pe_2_0_Aij_o_reg_2_:CP 4.153e+00
*RC SA_core_pe_2_2_Aij_o_reg_1_:CP 4.342e+00
*RC SA_core_pe_2_1_Aij_o_reg_1_:CP 1.544e+00
*RC SA_core_pe_2_0_Aij_o_reg_1_:CP 4.187e+00
*RC SA_core_pe_2_3_Cij_o_reg_7_:CP 4.389e+00
*RC SA_core_pe_2_2_Cij_o_reg_7_:CP 4.356e+00
*RC SA_core_pe_2_1_Cij_o_reg_7_:CP 4.176e+00
*RC SA_core_pe_2_3_Cij_o_reg_6_:CP 4.330e+00
*RC SA_core_pe_2_2_Cij_o_reg_6_:CP 4.252e+00
*RC SA_core_pe_2_1_Cij_o_reg_6_:CP 4.176e+00
*RC SA_core_pe_2_3_Cij_o_reg_5_:CP 4.412e+00
*RC SA_core_pe_2_2_Cij_o_reg_5_:CP 4.084e+00
*RC SA_core_pe_2_1_Cij_o_reg_5_:CP 4.173e+00
*RC SA_core_pe_2_3_Cij_o_reg_4_:CP 4.447e+00
*RC SA_core_pe_2_2_Cij_o_reg_4_:CP 4.309e+00
*RC SA_core_pe_2_1_Cij_o_reg_4_:CP 4.229e+00
*RC SA_core_pe_2_3_Cij_o_reg_3_:CP 4.466e+00
*RC SA_core_pe_2_1_Cij_o_reg_3_:CP 4.268e+00
*RC SA_core_pe_2_1_Cij_o_reg_2_:CP 4.246e+00
*RC SA_core_pe_2_0_Cij_o_reg_2_:CP 4.364e+00
*RC SA_core_pe_2_3_Cij_o_reg_1_:CP 4.362e+00
*RC SA_core_pe_2_2_Cij_o_reg_1_:CP 4.202e+00
*RC SA_core_pe_2_1_Cij_o_reg_1_:CP 4.251e+00
*RC SA_core_pe_2_0_Cij_o_reg_1_:CP 4.292e+00
*RC SA_core_pe_2_2_Cij_o_reg_0_:CP 4.256e+00
*RC SA_core_pe_2_1_Cij_o_reg_0_:CP 4.217e+00
*RC SA_core_pe_2_0_Cij_o_reg_0_:CP 4.190e+00
*RC SA_core_pe_3_2_Aij_o_reg_7_:CP 5.250e+00
*RC SA_core_pe_3_1_Aij_o_reg_7_:CP 4.958e+00
*RC SA_core_pe_3_0_Aij_o_reg_7_:CP 4.448e+00
*RC SA_core_pe_3_2_Aij_o_reg_6_:CP 5.131e+00
*RC SA_core_pe_3_1_Aij_o_reg_6_:CP 4.994e+00
*RC SA_core_pe_3_0_Aij_o_reg_6_:CP 4.626e+00
*RC SA_core_pe_3_2_Aij_o_reg_5_:CP 5.032e+00
*RC SA_core_pe_3_1_Aij_o_reg_5_:CP 5.018e+00
*RC SA_core_pe_3_0_Aij_o_reg_5_:CP 4.450e+00
*RC SA_core_pe_3_2_Aij_o_reg_4_:CP 5.202e+00
*RC SA_core_pe_3_1_Aij_o_reg_4_:CP 5.098e+00
*RC SA_core_pe_3_0_Aij_o_reg_4_:CP 4.509e+00
*RC SA_core_pe_3_2_Aij_o_reg_3_:CP 5.253e+00
*RC SA_core_pe_3_1_Aij_o_reg_3_:CP 5.058e+00
*RC SA_core_pe_3_0_Aij_o_reg_3_:CP 4.466e+00
*RC SA_core_pe_3_2_Aij_o_reg_2_:CP 5.091e+00
*RC SA_core_pe_3_1_Aij_o_reg_2_:CP 5.013e+00
*RC SA_core_pe_3_0_Aij_o_reg_2_:CP 4.679e+00
*RC SA_core_pe_3_2_Aij_o_reg_1_:CP 5.147e+00
*RC SA_core_pe_3_1_Aij_o_reg_1_:CP 5.051e+00
*RC SA_core_pe_3_0_Aij_o_reg_1_:CP 4.476e+00
*RC SA_core_pe_3_2_Cij_o_reg_7_:CP 4.985e+00
*RC SA_core_pe_3_1_Cij_o_reg_7_:CP 4.922e+00
*RC SA_core_pe_3_0_Cij_o_reg_7_:CP 4.601e+00
*RC SA_core_pe_3_2_Cij_o_reg_6_:CP 5.064e+00
*RC SA_core_pe_3_1_Cij_o_reg_6_:CP 4.740e+00
*RC SA_core_pe_3_0_Cij_o_reg_6_:CP 4.652e+00
*RC SA_core_pe_3_2_Cij_o_reg_5_:CP 4.943e+00
*RC SA_core_pe_3_1_Cij_o_reg_5_:CP 4.873e+00
*RC SA_core_pe_3_0_Cij_o_reg_5_:CP 4.669e+00
*RC SA_core_pe_3_2_Cij_o_reg_4_:CP 5.022e+00
*RC SA_core_pe_3_1_Cij_o_reg_4_:CP 4.786e+00
*RC SA_core_pe_3_0_Cij_o_reg_4_:CP 4.656e+00
*RC SA_core_pe_3_2_Cij_o_reg_3_:CP 5.025e+00
*RC SA_core_pe_3_1_Cij_o_reg_3_:CP 4.914e+00
*RC SA_core_pe_3_0_Cij_o_reg_3_:CP 4.663e+00
*RC SA_core_pe_3_2_Cij_o_reg_2_:CP 4.897e+00
*RC SA_core_pe_3_1_Cij_o_reg_2_:CP 4.847e+00
*RC SA_core_pe_3_0_Cij_o_reg_2_:CP 4.669e+00
*RC SA_core_pe_3_2_Cij_o_reg_1_:CP 4.812e+00
*RC SA_core_pe_3_1_Cij_o_reg_1_:CP 4.760e+00
*RC SA_core_pe_3_0_Cij_o_reg_1_:CP 4.622e+00
*RC SA_core_pe_3_2_Cij_o_reg_0_:CP 4.813e+00
*RC SA_core_pe_3_1_Cij_o_reg_0_:CP 4.760e+00
*RC SA_core_pe_3_0_Cij_o_reg_0_:CP 4.526e+00
*RC SA_core_pe_0_0_Aij_o_reg_7_:CP 4.228e+00
*RC SA_core_pe_0_0_Aij_o_reg_6_:CP 4.240e+00
*RC SA_core_pe_0_0_Aij_o_reg_5_:CP 4.232e+00
*RC SA_core_pe_0_0_Aij_o_reg_4_:CP 4.312e+00
*RC SA_core_pe_0_0_Aij_o_reg_3_:CP 4.450e+00
*RC SA_core_pe_0_0_Aij_o_reg_2_:CP 4.184e+00
*RC SA_core_pe_0_0_Aij_o_reg_1_:CP 4.192e+00
*RC SA_core_pe_0_0_Bij_o_reg_7_:CP 4.053e+00
*RC SA_core_pe_0_0_Bij_o_reg_5_:CP 4.058e+00
*RC SA_core_pe_0_0_Bij_o_reg_4_:CP 4.070e+00
*RC SA_core_pe_0_0_Bij_o_reg_3_:CP 4.021e+00
*RC SA_core_pe_0_0_Bij_o_reg_2_:CP 3.972e+00
*RC SA_core_pe_0_0_Bij_o_reg_0_:CP 3.993e+00
*RC SA_core_pe_0_0_Cij_o_reg_7_:CP 4.225e+00
*RC SA_core_pe_0_0_Cij_o_reg_6_:CP 4.456e+00
*RC SA_core_pe_0_0_Cij_o_reg_3_:CP 4.284e+00
*RC SA_core_pe_0_0_Cij_o_reg_2_:CP 4.104e+00
*RC SA_core_pe_0_0_Cij_o_reg_1_:CP 4.170e+00
*RC SA_core_pe_0_0_Cij_o_reg_0_:CP 4.108e+00
*RC SA_A_1_shift_reg_reg_6__6_:CP 1.973e+00
*RC SA_A_1_shift_reg_reg_6__5_:CP 2.055e+00
*RC SA_A_1_shift_reg_reg_6__4_:CP 2.181e+00
*RC SA_A_1_shift_reg_reg_6__1_:CP 1.897e+00
*RC SA_A_1_shift_reg_reg_5__7_:CP 4.014e+00
*RC SA_A_1_shift_reg_reg_5__6_:CP 3.971e+00
*RC SA_A_1_shift_reg_reg_5__5_:CP 4.006e+00
*RC SA_A_1_shift_reg_reg_5__4_:CP 2.215e+00
*RC SA_A_1_shift_reg_reg_5__3_:CP 3.985e+00
*RC SA_A_1_shift_reg_reg_5__2_:CP 2.052e+00
*RC SA_A_1_shift_reg_reg_5__1_:CP 4.070e+00
*RC SA_A_1_shift_reg_reg_5__0_:CP 1.938e+00
*RC SA_A_1_shift_reg_reg_4__7_:CP 2.423e+00
*RC SA_A_1_shift_reg_reg_4__6_:CP 3.981e+00
*RC SA_A_1_shift_reg_reg_4__5_:CP 4.158e+00
*RC SA_A_1_shift_reg_reg_4__4_:CP 2.168e+00
*RC SA_A_1_shift_reg_reg_4__3_:CP 2.455e+00
*RC SA_A_1_shift_reg_reg_4__2_:CP 4.117e+00
*RC SA_A_1_shift_reg_reg_4__1_:CP 4.065e+00
*RC SA_A_1_shift_reg_reg_4__0_:CP 2.340e+00
*RC SA_A_1_shift_reg_reg_3__7_:CP 2.569e+00
*RC SA_A_1_shift_reg_reg_3__6_:CP 4.027e+00
*RC SA_A_1_shift_reg_reg_3__5_:CP 4.188e+00
*RC SA_A_1_shift_reg_reg_3__4_:CP 2.449e+00
*RC SA_A_1_shift_reg_reg_3__3_:CP 2.292e+00
*RC SA_A_1_shift_reg_reg_3__2_:CP 4.134e+00
*RC SA_A_1_shift_reg_reg_3__1_:CP 4.216e+00
*RC SA_A_1_shift_reg_reg_3__0_:CP 3.998e+00
*RC SA_A_1_shift_reg_reg_2__7_:CP 4.014e+00
*RC SA_A_1_shift_reg_reg_2__6_:CP 4.103e+00
*RC SA_A_1_shift_reg_reg_2__5_:CP 4.162e+00
*RC SA_A_1_shift_reg_reg_2__4_:CP 2.499e+00
*RC SA_A_1_shift_reg_reg_2__3_:CP 2.781e+00
*RC SA_A_1_shift_reg_reg_2__2_:CP 4.094e+00
*RC SA_A_1_shift_reg_reg_2__1_:CP 4.226e+00
*RC SA_A_1_shift_reg_reg_2__0_:CP 4.027e+00
*RC SA_A_1_shift_reg_reg_1__7_:CP 2.652e+00
*RC SA_A_1_shift_reg_reg_1__6_:CP 4.166e+00
*RC SA_A_1_shift_reg_reg_1__5_:CP 4.254e+00
*RC SA_A_1_shift_reg_reg_1__4_:CP 4.035e+00
*RC SA_A_1_shift_reg_reg_1__3_:CP 2.936e+00
*RC SA_A_1_shift_reg_reg_1__2_:CP 4.078e+00
*RC SA_A_1_shift_reg_reg_1__1_:CP 4.294e+00
*RC SA_A_1_shift_reg_reg_1__0_:CP 4.048e+00
*RC SA_A_1_shift_reg_reg_0__7_:CP 2.774e+00
*RC SA_A_1_shift_reg_reg_0__6_:CP 4.296e+00
*RC SA_A_1_shift_reg_reg_0__5_:CP 4.268e+00
*RC SA_A_1_shift_reg_reg_0__4_:CP 4.095e+00
*RC SA_A_1_shift_reg_reg_0__3_:CP 4.028e+00
*RC SA_A_1_shift_reg_reg_0__2_:CP 4.213e+00
*RC SA_A_1_shift_reg_reg_0__1_:CP 4.316e+00
*RC SA_A_1_shift_reg_reg_0__0_:CP 2.924e+00
*RC SA_A_2_shift_reg_reg_5__7_:CP 4.118e+00
*RC SA_A_2_shift_reg_reg_5__6_:CP 4.209e+00
*RC SA_A_2_shift_reg_reg_5__5_:CP 3.085e+00
*RC SA_A_2_shift_reg_reg_5__4_:CP 3.417e+00
*RC SA_A_2_shift_reg_reg_5__3_:CP 4.101e+00
*RC SA_A_2_shift_reg_reg_5__2_:CP 4.052e+00
*RC SA_A_2_shift_reg_reg_5__1_:CP 3.130e+00
*RC SA_A_2_shift_reg_reg_5__0_:CP 4.015e+00
*RC SA_A_2_shift_reg_reg_4__7_:CP 4.029e+00
*RC SA_A_2_shift_reg_reg_4__6_:CP 3.572e+00
*RC SA_A_2_shift_reg_reg_4__5_:CP 4.089e+00
*RC SA_A_2_shift_reg_reg_4__4_:CP 3.416e+00
*RC SA_A_2_shift_reg_reg_4__3_:CP 3.383e+00
*RC SA_A_2_shift_reg_reg_4__2_:CP 4.209e+00
*RC SA_A_2_shift_reg_reg_4__1_:CP 4.191e+00
*RC SA_A_2_shift_reg_reg_4__0_:CP 4.135e+00
*RC SA_A_2_shift_reg_reg_3__7_:CP 4.262e+00
*RC SA_A_2_shift_reg_reg_3__6_:CP 4.250e+00
*RC SA_A_2_shift_reg_reg_3__5_:CP 4.185e+00
*RC SA_A_2_shift_reg_reg_3__4_:CP 4.194e+00
*RC SA_A_2_shift_reg_reg_3__3_:CP 4.163e+00
*RC SA_A_2_shift_reg_reg_3__2_:CP 4.275e+00
*RC SA_A_2_shift_reg_reg_3__1_:CP 4.239e+00
*RC SA_A_2_shift_reg_reg_3__0_:CP 4.342e+00
*RC SA_A_2_shift_reg_reg_2__7_:CP 4.454e+00
*RC SA_A_2_shift_reg_reg_2__6_:CP 4.489e+00
*RC SA_A_2_shift_reg_reg_2__5_:CP 4.363e+00
*RC SA_A_2_shift_reg_reg_2__4_:CP 4.362e+00
*RC SA_A_2_shift_reg_reg_2__3_:CP 4.306e+00
*RC SA_A_2_shift_reg_reg_2__2_:CP 4.385e+00
*RC SA_A_2_shift_reg_reg_2__1_:CP 4.340e+00
*RC SA_A_2_shift_reg_reg_2__0_:CP 4.488e+00
*RC SA_A_2_shift_reg_reg_1__7_:CP 4.534e+00
*RC SA_A_2_shift_reg_reg_1__6_:CP 4.637e+00
*RC SA_A_2_shift_reg_reg_1__5_:CP 4.426e+00
*RC SA_A_2_shift_reg_reg_1__4_:CP 4.462e+00
*RC SA_A_2_shift_reg_reg_1__3_:CP 4.541e+00
*RC SA_A_2_shift_reg_reg_1__2_:CP 4.550e+00
*RC SA_A_2_shift_reg_reg_1__1_:CP 4.381e+00
*RC SA_A_2_shift_reg_reg_1__0_:CP 4.621e+00
*RC SA_A_2_shift_reg_reg_0__7_:CP 4.585e+00
*RC SA_A_2_shift_reg_reg_0__6_:CP 4.689e+00
*RC SA_A_2_shift_reg_reg_0__5_:CP 4.635e+00
*RC SA_A_2_shift_reg_reg_0__4_:CP 4.661e+00
*RC SA_A_2_shift_reg_reg_0__3_:CP 4.732e+00
*RC SA_A_2_shift_reg_reg_0__2_:CP 4.580e+00
*RC SA_A_2_shift_reg_reg_0__1_:CP 4.452e+00
*RC SA_A_2_shift_reg_reg_0__0_:CP 4.639e+00
*RC SA_A_3_shift_reg_reg_6__6_:CP 4.326e+00
*RC SA_A_3_shift_reg_reg_6__5_:CP 4.508e+00
*RC SA_A_3_shift_reg_reg_6__4_:CP 4.334e+00
*RC SA_A_3_shift_reg_reg_5__7_:CP 4.635e+00
*RC SA_A_3_shift_reg_reg_5__6_:CP 4.239e+00
*RC SA_A_3_shift_reg_reg_5__5_:CP 4.535e+00
*RC SA_A_3_shift_reg_reg_5__4_:CP 4.424e+00
*RC SA_A_3_shift_reg_reg_5__3_:CP 4.532e+00
*RC SA_A_3_shift_reg_reg_5__2_:CP 4.584e+00
*RC SA_A_3_shift_reg_reg_5__1_:CP 4.505e+00
*RC SA_A_3_shift_reg_reg_5__0_:CP 4.432e+00
*RC SA_A_3_shift_reg_reg_4__7_:CP 4.716e+00
*RC SA_A_3_shift_reg_reg_4__6_:CP 4.141e+00
*RC SA_A_3_shift_reg_reg_4__5_:CP 4.641e+00
*RC SA_A_3_shift_reg_reg_4__4_:CP 4.322e+00
*RC SA_A_3_shift_reg_reg_4__3_:CP 4.671e+00
*RC SA_A_3_shift_reg_reg_4__2_:CP 4.652e+00
*RC SA_A_3_shift_reg_reg_4__1_:CP 4.714e+00
*RC SA_A_3_shift_reg_reg_4__0_:CP 4.532e+00
*RC SA_A_3_shift_reg_reg_3__7_:CP 4.770e+00
*RC SA_A_3_shift_reg_reg_3__6_:CP 4.236e+00
*RC SA_A_3_shift_reg_reg_3__5_:CP 4.680e+00
*RC SA_A_3_shift_reg_reg_3__4_:CP 4.320e+00
*RC SA_A_3_shift_reg_reg_3__3_:CP 4.585e+00
*RC SA_A_3_shift_reg_reg_3__2_:CP 4.545e+00
*RC SA_A_3_shift_reg_reg_3__1_:CP 4.606e+00
*RC SA_A_3_shift_reg_reg_3__0_:CP 4.505e+00
*RC SA_A_3_shift_reg_reg_2__7_:CP 4.403e+00
*RC SA_A_3_shift_reg_reg_2__6_:CP 4.103e+00
*RC SA_A_3_shift_reg_reg_2__5_:CP 4.221e+00
*RC SA_A_3_shift_reg_reg_2__4_:CP 4.202e+00
*RC SA_A_3_shift_reg_reg_2__3_:CP 4.440e+00
*RC SA_A_3_shift_reg_reg_2__2_:CP 4.456e+00
*RC SA_A_3_shift_reg_reg_2__1_:CP 4.360e+00
*RC SA_A_3_shift_reg_reg_2__0_:CP 4.245e+00
*RC SA_A_3_shift_reg_reg_1__7_:CP 4.060e+00
*RC SA_A_3_shift_reg_reg_1__6_:CP 3.542e+00
*RC SA_A_3_shift_reg_reg_1__5_:CP 4.125e+00
*RC SA_A_3_shift_reg_reg_1__4_:CP 4.106e+00
*RC SA_A_3_shift_reg_reg_1__3_:CP 4.075e+00
*RC SA_A_3_shift_reg_reg_1__2_:CP 4.085e+00
*RC SA_A_3_shift_reg_reg_1__1_:CP 4.055e+00
*RC SA_A_3_shift_reg_reg_1__0_:CP 4.266e+00
*RC SA_A_3_shift_reg_reg_0__7_:CP 4.165e+00
*RC SA_A_3_shift_reg_reg_0__6_:CP 4.068e+00
*RC SA_A_3_shift_reg_reg_0__5_:CP 4.311e+00
*RC SA_A_3_shift_reg_reg_0__4_:CP 4.232e+00
*RC SA_A_3_shift_reg_reg_0__3_:CP 3.865e+00
*RC SA_A_3_shift_reg_reg_0__2_:CP 3.732e+00
*RC SA_A_3_shift_reg_reg_0__1_:CP 4.037e+00
*RC SA_A_3_shift_reg_reg_0__0_:CP 4.373e+00
*RC SA_B_0_shift_reg_reg_5__7_:CP 4.678e+00
*RC SA_B_0_shift_reg_reg_5__6_:CP 4.752e+00
*RC SA_B_0_shift_reg_reg_5__5_:CP 4.909e+00
*RC SA_B_0_shift_reg_reg_5__4_:CP 5.035e+00
*RC SA_B_0_shift_reg_reg_5__3_:CP 4.821e+00
*RC SA_B_0_shift_reg_reg_5__2_:CP 4.984e+00
*RC SA_B_0_shift_reg_reg_5__1_:CP 5.025e+00
*RC SA_B_0_shift_reg_reg_5__0_:CP 4.878e+00
*RC SA_B_0_shift_reg_reg_4__7_:CP 4.603e+00
*RC SA_B_0_shift_reg_reg_4__6_:CP 4.780e+00
*RC SA_B_0_shift_reg_reg_4__5_:CP 5.080e+00
*RC SA_B_0_shift_reg_reg_4__4_:CP 5.081e+00
*RC SA_B_0_shift_reg_reg_4__3_:CP 4.828e+00
*RC SA_B_0_shift_reg_reg_4__2_:CP 5.017e+00