$ Spice netlist generated by v2lvs
$ v2013.2_18.13    Thu May 16 11:29:55 PDT 2013

.SUBCKT systolic_array clk_p rstn_p en_p p_shift_in<7> p_shift_in<6> 
+ p_shift_in<5> p_shift_in<4> p_shift_in<3> p_shift_in<2> p_shift_in<1> 
+ p_shift_in<0> p_shift_out<7> p_shift_out<6> p_shift_out<5> p_shift_out<4> 
+ p_shift_out<3> p_shift_out<2> p_shift_out<1> p_shift_out<0> ack_p VDD VSS 
Xicc_route_opt1490 CKBD1BWP7T $PINS VSS=VSS VDD=VDD I=SA_core_connect<46> 
+ Z=n4849 
Xicc_route_opt1489 CKBD1BWP7T $PINS VSS=VSS VDD=VDD I=SA_core_connect<171> 
+ Z=n4848 
Xicc_route_opt1488 BUFFD12BWP7T $PINS VDD=VDD VSS=VSS I=SA_core_connect<74> 
+ Z=n4847 
Xicc_route_opt1487 CKBD1BWP7T $PINS VSS=VSS VDD=VDD I=SA_core_connect<61> 
+ Z=n4846 
Xicc_route_opt1486 CKBD1BWP7T $PINS VSS=VSS VDD=VDD I=SA_core_connect<66> 
+ Z=n4845 
Xicc_route_opt1485 CKBD1BWP7T $PINS VSS=VSS VDD=VDD I=SA_core_output_row_1<0> 
+ Z=n4844 
Xicc_route_opt1484 CKBD1BWP7T $PINS VSS=VSS VDD=VDD I=SA_core_connect<141> 
+ Z=n4843 
Xicc_route_opt1483 BUFFD1P5BWP7T $PINS VSS=VSS VDD=VDD Z=n4842 
+ I=SA_core_connect<113> 
Xicc_route_opt1482 CKBD1BWP7T $PINS VSS=VSS VDD=VDD I=SA_core_connect<28> 
+ Z=n4841 
Xicc_route_opt1481 CKBD1BWP7T $PINS VSS=VSS VDD=VDD I=SA_core_connect<12> 
+ Z=n4840 
Xicc_route_opt1480 CKBD1BWP7T $PINS VSS=VSS VDD=VDD I=SA_core_output_row_1<6> 
+ Z=n4839 
Xicc_route_opt1479 BUFFD1P5BWP7T $PINS VSS=VSS VDD=VDD Z=n4838 
+ I=SA_core_connect<122> 
Xicc_route_opt1478 CKBD1BWP7T $PINS VSS=VSS VDD=VDD I=SA_core_connect<37> 
+ Z=n4837 
Xicc_route_opt1477 CKBD12BWP7T $PINS VSS=VSS I=SA_core_connect<112> VDD=VDD 
+ Z=n4836 
Xicc_route_opt1476 CKBD1BWP7T $PINS VSS=VSS VDD=VDD I=SA_core_shift_wire<94> 
+ Z=n4835 
Xicc_route_opt1475 CKBD1BWP7T $PINS VSS=VSS VDD=VDD I=SA_core_shift_wire<79> 
+ Z=n4834 
Xicc_route_opt1474 CKBD1BWP7T $PINS VSS=VSS VDD=VDD I=SA_core_connect<41> 
+ Z=n4833 
Xicc_route_opt1473 CKBD1BWP7T $PINS VSS=VSS VDD=VDD I=SA_core_connect<85> 
+ Z=n4832 
Xicc_route_opt1472 BUFFD1P5BWP7T $PINS VSS=VSS VDD=VDD Z=n4831 
+ I=SA_core_connect<72> 
Xicc_route_opt1471 BUFFD3BWP7T $PINS VSS=VSS VDD=VDD Z=n4830 I=n3088 
Xicc_route_opt1470 BUFFD2BWP7T $PINS VSS=VSS VDD=VDD Z=n4829 I=n3583 
Xicc_route_opt1469 CKBD1BWP7T $PINS VSS=VSS VDD=VDD I=SA_core_output_row_1<4> 
+ Z=n4828 
Xicc_route_opt1468 BUFFD0BWP7T $PINS VSS=VSS VDD=VDD Z=n4827 I=n1525 
Xicc_route_opt1467 BUFFD0BWP7T $PINS VSS=VSS VDD=VDD Z=n4826 I=n1082 
Xicc_route_opt1466 BUFFD1P5BWP7T $PINS VSS=VSS VDD=VDD Z=n4825 
+ I=SA_core_connect<48> 
Xicc_route_opt1465 CKBD1BWP7T $PINS VSS=VSS VDD=VDD I=SA_core_connect<45> 
+ Z=n4824 
Xicc_route_opt1464 BUFFD0BWP7T $PINS VSS=VSS VDD=VDD Z=n4823 I=n1408 
Xicc_route_opt1463 BUFFD3BWP7T $PINS VSS=VSS VDD=VDD Z=n4822 
+ I=SA_core_connect<137> 
Xicc_route_opt1462 BUFFD1P5BWP7T $PINS VSS=VSS VDD=VDD Z=n4821 
+ I=SA_core_connect<129> 
Xicc_route_opt1461 BUFFD1P5BWP7T $PINS VSS=VSS VDD=VDD Z=n4820 
+ I=SA_core_connect<88> 
Xicc_route_opt1460 BUFFD0BWP7T $PINS VSS=VSS VDD=VDD Z=n4819 I=n1097 
Xicc_route_opt1459 CKBD1BWP7T $PINS VSS=VSS VDD=VDD I=SA_core_connect<36> 
+ Z=n4818 
Xicc_route_opt1458 CKBD1BWP7T $PINS VSS=VSS VDD=VDD I=SA_core_connect<6> 
+ Z=n4817 
Xicc_route_opt1457 BUFFD3BWP7T $PINS VSS=VSS VDD=VDD Z=n4816 I=n3087 
Xicc_route_opt1456 BUFFD0BWP7T $PINS VSS=VSS VDD=VDD Z=n4815 
+ I=SA_core_pe_3_3_N14 
Xicc_route_opt1455 CKBD1BWP7T $PINS VSS=VSS VDD=VDD I=SA_core_connect<10> 
+ Z=n4814 
Xicc_route_opt1454 CKBD1BWP7T $PINS VSS=VSS VDD=VDD I=n3803 Z=n4813 
Xicc_route_opt1453 CKBD1BWP7T $PINS VSS=VSS VDD=VDD I=SA_core_shift_wire<70> 
+ Z=n4812 
Xicc_route_opt1452 CKBD1BWP7T $PINS VSS=VSS VDD=VDD I=SA_core_connect<172> 
+ Z=n4811 
Xicc_route_opt1451 BUFFD1P5BWP7T $PINS VSS=VSS VDD=VDD Z=n4810 
+ I=SA_core_connect<161> 
Xicc_route_opt1450 BUFFD0BWP7T $PINS VSS=VSS VDD=VDD Z=n4809 I=n1286 
Xicc_route_opt1449 BUFFD0BWP7T $PINS VSS=VSS VDD=VDD Z=n4808 I=n703 
Xicc_route_opt1448 BUFFD0BWP7T $PINS VSS=VSS VDD=VDD Z=n4807 I=n2118 
Xicc_route_opt1447 BUFFD0BWP7T $PINS VSS=VSS VDD=VDD Z=n4806 I=n3110 
Xicc_route_opt1446 CKBD1BWP7T $PINS VSS=VSS VDD=VDD Z=n4805 I=n3638 
Xicc_place1598 BUFFD12BWP7T $PINS VSS=VSS I=SA_ctrl_state_load_row<0> VDD=VDD 
+ Z=n4653 
XU1592 CKND2D3BWP7T $PINS VSS=VSS VDD=VDD A1=n3144 ZN=n4462 A2=n3143 
XU2737 INVD2BWP7T $PINS VDD=VDD VSS=VSS I=SA_col_1<2> ZN=n3884 
XU3807 OAI21D1BWP7T $PINS VSS=VSS VDD=VDD B=n3270 A1=n3278 ZN=n978 A2=n3281 
XU3150 INVD1BWP7T $PINS ZN=n2717 VSS=VSS VDD=VDD I=SA_core_shift_wire<17> 
Xicc_place1673 BUFFD8BWP7T $PINS VSS=VSS VDD=VDD Z=n4728 I=n4725 
Xicc_place1582 INVD2BWP7T $PINS VDD=VDD VSS=VSS I=SA_core_connect<24> ZN=n4637 
Xicc_place1599 INVD3BWP7T $PINS VDD=VDD VSS=VSS ZN=n4654 I=n4653 
XU1464 ND2D0BWP7T $PINS VSS=VSS VDD=VDD A1=SA_ctrl_state_load_id<0> ZN=n3113 
+ A2=SA_ctrl_state_load_id<1> 
XU1870 INVD1P5BWP7T $PINS VDD=VDD VSS=VSS I=SA_core_connect<34> ZN=n3802 
Xicc_place1579 INVD2BWP7T $PINS VDD=VDD VSS=VSS I=SA_col_1<0> ZN=n4634 
XU1740 MOAI22D0BWP7T $PINS A2=n1354 A1=n3086 ZN=SA_core_pe_3_2_N17 B1=n3084 
+ VSS=VSS B2=SA_core_shift_wire<87> VDD=VDD 
XU1629 ND2D4BWP7T $PINS A1=n4729 ZN=n3086 A2=n4770 VDD=VDD VSS=VSS 
XU2522 NR2D0BWP7T $PINS VSS=VSS VDD=VDD A1=n4608 ZN=n2104 A2=n4690 
XU2372 INVD2BWP7T $PINS VDD=VDD VSS=VSS I=SA_core_connect<99> ZN=n3851 
XU3019 AOI21D2BWP7T $PINS VSS=VSS A2=n3769 VDD=VDD A1=n2593 B=n2605 ZN=n2599 
XU1503 INVD1BWP7T $PINS ZN=n3769 VSS=VSS VDD=VDD I=SA_core_output_row_0<1> 
XU4409 CKND2D2BWP7T $PINS VSS=VSS VDD=VDD A1=n4710 ZN=n3628 A2=n4717 
XU3043 NR3D1BWP7T $PINS VSS=VSS VDD=VDD ZN=n2642 A1=n4642 A3=n3768 A2=n3748 
Xicc_place1587 INVD2BWP7T $PINS VDD=VDD VSS=VSS I=n4641 ZN=n4642 
XU3059 NR3D1BWP7T $PINS VSS=VSS VDD=VDD ZN=n2660 A1=n4642 A3=n3767 A2=n4577 
Xicc_place1522 INVD1BWP7T $PINS VSS=VSS VDD=VDD ZN=n4577 I=n4576 
XU1681 INVD1BWP7T $PINS ZN=n3000 VSS=VSS VDD=VDD I=SA_core_shift_wire<92> 
XU1433 NR3D0BWP7T $PINS VSS=VSS VDD=VDD ZN=n3088 A1=n3091 
+ A3=SA_ctrl_state_compute_out<1> A2=n4708 
XU1437 OAI21D0BWP7T $PINS VSS=VSS VDD=VDD B=ack A1=SA_ctrl_state_compute_out<1> 
+ ZN=n2589 A2=SA_ctrl_state_compute_out<0> 
XU2630 INVD1BWP7T $PINS ZN=n3880 VSS=VSS VDD=VDD I=SA_col_1<6> 
XU4226 ND2D1BWP7T $PINS VSS=VSS VDD=VDD A1=n4505 ZN=n3575 A2=n3516 
Xicc_place1450 BUFFD2BWP7T $PINS VSS=VSS VDD=VDD Z=n4505 I=shift_in<3> 
XU2501 INVD2BWP7T $PINS VDD=VDD VSS=VSS I=SA_row_2<2> ZN=n3864 
XU1521 NR3D1BWP7T $PINS VSS=VSS VDD=VDD ZN=n1134 A1=n4644 A3=n1118 A2=n4640 
Xicc_place1589 INVD2BWP7T $PINS VDD=VDD VSS=VSS I=SA_col_0<1> ZN=n4644 
XU1876 CKND1BWP7T $PINS VDD=VDD VSS=VSS I=SA_core_connect<26> ZN=n3803 
XU3536 AOI221D2BWP7T $PINS B2=n3119 A1=n4780 A2=n4472 ZN=n3121 B1=n4654 VDD=VDD 
+ C=n3129 VSS=VSS 
XU3262 NR2XD0BWP7T $PINS VSS=VSS VDD=VDD A1=n4726 ZN=SA_core_pe_0_1_N20 
+ A2=n3848 
Xicc_place1691 INVD6BWP7T $PINS VDD=VDD VSS=VSS ZN=n4746 I=n3084 
Xicc_place1653 INVD2BWP7T $PINS VSS=VSS VDD=VDD I=ack ZN=n4708 
XU2149 ND3D1BWP7T $PINS VSS=VSS VDD=VDD A2=SA_core_connect<56> A1=n4599 
+ ZN=n1744 A3=SA_core_shift_wire<66> 
XU2547 INVD4BWP7T $PINS VDD=VDD VSS=VSS I=SA_row_3<1> ZN=n3871 
Xicc_place1481 CKND2BWP7T $PINS VDD=VDD VSS=VSS I=SA_row_1<1> ZN=n4536 
XU3010 ND3D1BWP7T $PINS VSS=VSS VDD=VDD A2=SA_core_connect<16> A1=SA_col_3<0> 
+ ZN=n2594 A3=SA_core_output_row_0<0> 
XU3011 OAI21D0BWP7T $PINS VSS=VSS VDD=VDD B=n2594 A1=n2587 ZN=n2591 
+ A2=SA_core_output_row_0<0> 
XU4038 ND2D2BWP7T $PINS A1=n4345 ZN=n3411 VDD=VDD A2=n4714 VSS=VSS 
XU4335 OAI31D1BWP7T $PINS VSS=VSS VDD=VDD B=n4706 ZN=n3638 A3=n4462 A2=n4651 
+ A1=n4653 
XU4213 OAI21D0BWP7T $PINS VSS=VSS VDD=VDD B=n4706 A1=n3514 ZN=n3567 A2=n4462 
XU1616 NR2D0BWP7T $PINS VSS=VSS VDD=VDD A1=n4728 ZN=SA_core_pe_3_2_N18 A2=n4679 
Xicc_place1647 BUFFD4BWP7T $PINS VSS=VSS VDD=VDD Z=n4702 I=n4693 
Xicc_place1645 BUFFD5BWP7T $PINS VSS=VSS VDD=VDD Z=n4700 I=n4693 
XU2645 INVD1BWP7T $PINS ZN=n2223 VSS=VSS VDD=VDD I=SA_core_shift_wire<41> 
XU2011 CKND1BWP7T $PINS ZN=n1616 VSS=VSS VDD=VDD I=n1610 
Xicc_place1674 CKND4BWP7T $PINS VSS=VSS VDD=VDD ZN=n4729 I=n4728 
Xicc_place1583 CKND1BWP7T $PINS VDD=VDD VSS=VSS I=n4822 ZN=n4638 
XU2128 INVD2BWP7T $PINS VDD=VDD VSS=VSS I=n4847 ZN=n3833 
XU2231 MOAI22D1BWP7T $PINS A2=n1846 A1=n4470 ZN=SA_core_pe_2_2_N17 B1=n1606 
+ VSS=VSS B2=n4551 VDD=VDD 
Xicc_place1643 BUFFD5BWP7T $PINS VSS=VSS VDD=VDD Z=n4698 I=n4693 
XU4228 CKND2D2BWP7T $PINS VSS=VSS VDD=VDD A1=n4504 ZN=n3577 A2=n3516 
Xicc_place1449 BUFFD3BWP7T $PINS VSS=VSS VDD=VDD Z=n4504 I=shift_in<4> 
XU4145 ND2D2BWP7T $PINS VSS=VSS VDD=VDD A1=n3689 ZN=n3475 A2=n4721 
Xicc_place1666 BUFFD3BWP7T $PINS VSS=VSS VDD=VDD I=n4777 Z=n4721 
XU2371 NR2D0BWP7T $PINS VSS=VSS VDD=VDD A1=n4728 ZN=SA_core_pe_2_0_N18 A2=n4636 
Xicc_place1635 INVD2BWP7T $PINS VDD=VDD VSS=VSS I=SA_core_connect<40> ZN=n4690 
XU2506 ND3D1BWP7T $PINS VSS=VSS VDD=VDD A2=SA_core_connect<40> A1=n4609 
+ ZN=n2101 A3=n4844 
Xicc_place1554 BUFFD1P5BWP7T $PINS VSS=VSS VDD=VDD I=SA_core_connect<168> 
+ Z=n4609 
Xicc_place1540 INVD2BWP7T $PINS VDD=VDD VSS=VSS I=n4594 ZN=n4595 
Xicc_place1592 INVD2BWP7T $PINS VSS=VSS VDD=VDD ZN=n4647 I=SA_core_connect<0> 
XU1900 INVD2BWP7T $PINS VDD=VDD VSS=VSS I=SA_core_connect<25> ZN=n3806 
XU4716 OAI31D2BWP7T $PINS VSS=VSS VDD=VDD B=n4706 ZN=n4267 A3=n4462 A2=n4654 
+ A1=n4650 
Xicc_place1595 CKBD10BWP7T $PINS VSS=VSS VDD=VDD Z=n4650 
+ I=SA_ctrl_state_load_row<1> 
Xicc_place1676 INVD5BWP7T $PINS VSS=VSS VDD=VDD I=n4730 ZN=n4731 
Xicc_place1671 BUFFD8BWP7T $PINS VSS=VSS VDD=VDD Z=n4726 I=n4725 
XU3115 MOAI22D1BWP7T $PINS A2=n2711 A1=n4743 ZN=SA_core_pe_0_3_N17 B1=n2590 
+ VSS=VSS B2=SA_core_shift_wire<23> VDD=VDD 
Xicc_place1616 INVD3BWP7T $PINS VDD=VDD VSS=VSS I=n4842 ZN=n4671 
XU2520 INVD2BWP7T $PINS VDD=VDD VSS=VSS I=SA_row_3<2> ZN=n3870 
XU4318 CKND2D2BWP7T $PINS VSS=VSS VDD=VDD A1=n4718 ZN=n3583 A2=n4356 
Xicc_place1663 BUFFD2BWP7T $PINS VSS=VSS VDD=VDD Z=n4718 I=n3722 
XU2900 AOI21D2BWP7T $PINS VSS=VSS A2=n2464 VDD=VDD A1=n2465 B=n2481 ZN=n2470 
XU2899 NR3D1BWP7T $PINS VSS=VSS VDD=VDD ZN=n2481 A1=n4687 A3=n2465 A2=n4643 
XU2897 INVD1BWP7T $PINS ZN=n2465 VSS=VSS VDD=VDD I=SA_core_shift_wire<25> 
XU2290 MOAI22D0BWP7T $PINS A2=n4470 A1=n1869 ZN=SA_core_pe_2_1_N13 B1=n1606 
+ VSS=VSS B2=SA_core_shift_wire<51> VDD=VDD 
Xicc_place1464 INVD2BWP7T $PINS VDD=VDD VSS=VSS I=n4518 ZN=n4519 
XU3534 OAI22D0BWP7T $PINS B1=n4651 A2=n3118 ZN=n1082 A1=n3129 VDD=VDD B2=n3128 
+ VSS=VSS 
XU2392 NR3D1BWP7T $PINS VSS=VSS VDD=VDD ZN=n1989 A1=n4686 A3=n1973 A2=n4636 
Xicc_place1631 CKND1BWP7T $PINS VDD=VDD VSS=VSS I=SA_core_connect<105> ZN=n4686 
XU2390 INVD1BWP7T $PINS ZN=n1973 VSS=VSS VDD=VDD I=SA_core_shift_wire<49> 
XU1432 INVD2BWP7T $PINS ZN=n3091 VSS=VSS VDD=VDD I=SA_ctrl_state_compute_out<0> 
XU3328 MOAI22D1BWP7T $PINS A2=n2886 A1=n4743 ZN=SA_core_pe_0_1_N15 B1=n2590 
+ VSS=VSS B2=SA_core_shift_wire<5> VDD=VDD 
XU1861 NR2XD0BWP7T $PINS VSS=VSS VDD=VDD A1=n4728 ZN=SA_core_pe_3_0_N18 
+ A2=n4669 
XU3718 ND2D2BWP7T $PINS VSS=VSS VDD=VDD A1=n4508 ZN=n3281 A2=n4779 
Xicc_place1531 CKBD1BWP7T $PINS VSS=VSS VDD=VDD Z=n4779 I=n3225 
Xicc_place1628 INVD2BWP7T $PINS VDD=VDD VSS=VSS I=n4682 ZN=n4683 
XU2611 MOAI22D1BWP7T $PINS A2=n2217 A1=n4745 ZN=SA_core_pe_1_3_N17 B1=n2097 
+ VSS=VSS B2=SA_core_shift_wire<47> VDD=VDD 
XU2058 NR3D1BWP7T $PINS VSS=VSS VDD=VDD ZN=n1712 A1=n4689 A3=n1652 A2=n1672 
Xicc_place1634 INVD2BWP7T $PINS VDD=VDD VSS=VSS I=n4688 ZN=n4689 
XU3282 MOAI22D1BWP7T $PINS A2=n2843 A1=n4743 ZN=SA_core_pe_0_1_N11 B1=n2590 
+ VSS=VSS B2=SA_core_shift_wire<1> VDD=VDD 
XU3047 MOAI22D1BWP7T $PINS A2=n4743 A1=n2612 ZN=SA_core_pe_0_3_N13 B1=n2590 
+ VSS=VSS B2=SA_core_shift_wire<19> VDD=VDD 
Xicc_place1688 INVD3BWP7T $PINS VSS=VSS VDD=VDD ZN=n4743 I=n4742 
XU3046 XOR3D1BWP7T $PINS VSS=VSS VDD=VDD A2=n2617 A1=n2618 A3=n2616 Z=n2612 
XU1752 NR2XD0BWP7T $PINS VSS=VSS VDD=VDD A1=n4728 ZN=SA_core_pe_3_1_N23 
+ A2=n1417 
XU3018 NR3D1BWP7T $PINS VSS=VSS VDD=VDD ZN=n2605 A1=n4642 A3=n3769 A2=n4691 
XU1450 AOI22D2BWP7T $PINS B1=SA_core_output_row_0<4> A2=SA_core_output_row_3<4> 
+ ZN=n1100 A1=n4737 VDD=VDD B2=n4736 VSS=VSS 
Xicc_place1682 INVD2BWP7T $PINS VDD=VDD VSS=VSS I=n4770 ZN=n4737 
Xicc_place1681 BUFFD3BWP7T $PINS VSS=VSS VDD=VDD Z=n4736 I=n2589 
Xicc_place1633 BUFFD1P5BWP7T $PINS VSS=VSS VDD=VDD I=SA_core_connect<177> 
+ Z=n4688 
Xicc_place1576 INVD2BWP7T $PINS VDD=VDD VSS=VSS I=SA_core_connect<144> ZN=n4631 
XU1977 AOI211XD0BWP7T $PINS VSS=VSS VDD=VDD B=n3086 A2=n1599 A1=n1600 
+ ZN=SA_core_pe_3_0_N17 C=n1598 
XU3726 ND2D1P5BWP7T $PINS VSS=VSS VDD=VDD A1=n4504 ZN=n3289 A2=n3225 
Xicc_place1640 BUFFD5BWP7T $PINS VSS=VSS VDD=VDD Z=n4695 I=n4693 
Xicc_place1495 INVD2BWP7T $PINS VSS=VSS VDD=VDD ZN=n4550 I=n4549 
XU2357 NR2D0BWP7T $PINS VSS=VSS VDD=VDD A1=n4728 ZN=SA_core_pe_2_0_N26 A2=n4619 
Xicc_place1577 INVD2BWP7T $PINS VDD=VDD VSS=VSS I=SA_row_2<1> ZN=n4632 
XU1919 NR3D1BWP7T $PINS VSS=VSS VDD=VDD ZN=n1539 A1=n4671 A3=n1512 A2=n3869 
Xicc_place1687 BUFFD6BWP7T $PINS VSS=VSS VDD=VDD Z=n4742 I=n2917 
XU1455 AOI22D1BWP7T $PINS B1=n4830 A2=SA_core_output_row_2<6> ZN=n1105 A1=n4816 
+ VDD=VDD B2=n4839 VSS=VSS 
Xicc_place1580 INVD2BWP7T $PINS VSS=VSS VDD=VDD I=SA_col_0<0> ZN=n4635 
XU2362 INVD2BWP7T $PINS VDD=VDD VSS=VSS I=SA_core_connect<1> ZN=n3849 
XU1664 NR3D1BWP7T $PINS VSS=VSS VDD=VDD ZN=n1287 A1=n4629 A3=n2982 A2=n4569 
XU3247 NR2D0BWP7T $PINS VSS=VSS VDD=VDD A1=n4726 ZN=SA_core_pe_0_1_N28 A2=n3884 
XU1691 NR3D1BWP7T $PINS VSS=VSS VDD=VDD ZN=n1340 A1=n4629 A3=n4523 A2=n3829 
Xicc_place1574 CKND1BWP7T $PINS VSS=VSS I=n4810 VDD=VDD ZN=n4629 
Xicc_place1575 INVD2BWP7T $PINS VDD=VDD VSS=VSS I=SA_core_connect<120> ZN=n4630 
XU2530 MOAI22D1BWP7T $PINS A2=n4745 A1=n2109 ZN=SA_core_pe_1_3_N12 B1=n2097 
+ VSS=VSS B2=SA_core_shift_wire<42> VDD=VDD 
Xicc_place1690 INVD4BWP7T $PINS VSS=VSS VDD=VDD ZN=n4745 I=n2538 
XU3266 NR2D0BWP7T $PINS VSS=VSS VDD=VDD A1=n4726 ZN=SA_core_pe_0_1_N22 A2=n4527 
Xicc_place1637 INVD2BWP7T $PINS VSS=VSS VDD=VDD I=SA_col_1<1> ZN=n4692 
XU1452 AOI22D1BWP7T $PINS B1=n4830 A2=SA_core_output_row_2<5> ZN=n1103 A1=n4816 
+ VDD=VDD B2=SA_core_output_row_1<5> VSS=VSS 
XU2886 NR2XD0BWP7T $PINS VSS=VSS VDD=VDD A1=n4726 ZN=SA_core_pe_1_0_N22 
+ A2=n3856 
XU3833 AOI22D1BWP7T $PINS B1=n4695 A2=n3295 ZN=n3292 A1=SA_col_3<6> VDD=VDD 
+ B2=SA_B_3_shift_reg_5__6_ VSS=VSS 
XU1438 AOI22D1BWP7T $PINS B1=SA_core_output_row_0<0> A2=SA_core_output_row_3<0> 
+ ZN=n1092 A1=n4737 VDD=VDD B2=n4736 VSS=VSS 
XU2359 NR2D0BWP7T $PINS VSS=VSS VDD=VDD A1=n4728 ZN=SA_core_pe_2_0_N27 A2=n4686 
XU2243 NR2D1P5BWP7T $PINS VSS=VSS VDD=VDD A1=n4728 ZN=SA_core_pe_2_1_N31 
+ A2=n4584 
XU2109 INVD2BWP7T $PINS VDD=VDD VSS=VSS I=SA_core_connect<49> ZN=n3825 
XU1516 AOI21D1BWP7T $PINS A2=ack A1=n4736 ZN=n2917 VDD=VDD B=n4726 VSS=VSS 
XU1426 NR2XD4BWP7T $PINS VSS=VSS VDD=VDD A1=n4656 ZN=ack A2=n4522 
XU1878 AOI211XD1BWP7T $PINS VSS=VSS VDD=VDD B=n1485 A2=n1476 A1=n1477 
+ ZN=SA_core_pe_3_0_N10 C=n3086 
XU3822 OAI21D1BWP7T $PINS VSS=VSS VDD=VDD B=n3280 A1=n3281 ZN=n971 A2=n3295 
XU2563 NR3D1BWP7T $PINS VSS=VSS VDD=VDD ZN=n2203 A1=n4646 A3=n2143 A2=n2163 
Xicc_place1612 INVD1P5BWP7T $PINS VDD=VDD VSS=VSS I=SA_core_connect<153> 
+ ZN=n4667 
XU1877 NR3D2BWP7T $PINS VSS=VSS VDD=VDD ZN=n1485 A1=n3816 A3=n1477 A2=n4669 
XU1989 INVD1P5BWP7T $PINS VDD=VDD VSS=VSS I=n4836 ZN=n3816 
XU1434 AOI22D1BWP7T $PINS B1=n4830 A2=SA_core_output_row_2<0> ZN=n1093 A1=n4816 
+ VDD=VDD B2=n4844 VSS=VSS 
XU2555 NR3D1BWP7T $PINS VSS=VSS VDD=VDD ZN=n2168 A1=n4646 A3=n2133 A2=n4615 
Xicc_place1560 INVD1BWP7T $PINS VSS=VSS VDD=VDD ZN=n4615 I=n4614 
Xicc_place1591 INVD2BWP7T $PINS VDD=VDD VSS=VSS I=n4645 ZN=n4646 
XU1859 IOA22D1BWP7T $PINS A2=n4834 A1=n3084 ZN=SA_core_pe_3_1_N17 B1=n3086 
+ VSS=VSS B2=n1475 VDD=VDD 
XU1634 NR2XD3BWP7T $PINS VSS=VSS VDD=VDD A1=n4770 ZN=n3084 A2=n4730 
XU3152 NR3D1BWP7T $PINS VSS=VSS VDD=VDD ZN=n2728 A1=n4633 A3=n2717 A2=n4579 
Xicc_place1578 INVD2BWP7T $PINS VDD=VDD VSS=VSS I=SA_col_2<1> ZN=n4633 
XU1865 NR2D0BWP7T $PINS VSS=VSS VDD=VDD A1=n4728 ZN=SA_core_pe_3_0_N20 A2=n3870 
XU2009 NR3D1BWP7T $PINS VSS=VSS VDD=VDD ZN=n1621 A1=n4689 A3=n1608 A2=n4648 
XU2008 INVD1BWP7T $PINS ZN=n1608 VSS=VSS VDD=VDD I=SA_core_output_row_2<1> 
XU4722 OAI31D1BWP7T $PINS VSS=VSS VDD=VDD B=n4706 ZN=n4271 A3=n4677 A2=n4772 
+ A1=SA_ctrl_state_load_id<0> 
XU3830 OAI21D1BWP7T $PINS VSS=VSS VDD=VDD B=n3288 A1=n3289 ZN=n967 A2=n3295 
XU3829 AOI22D1BWP7T $PINS B1=n4695 A2=n3295 ZN=n3288 A1=SA_col_3<4> VDD=VDD 
+ B2=SA_B_3_shift_reg_5__4_ VSS=VSS 
XU3820 ND2D3BWP7T $PINS VSS=VSS VDD=VDD A1=n4719 ZN=n3295 A2=n4734 
XU4719 OAI31D1BWP7T $PINS VSS=VSS VDD=VDD B=n4706 ZN=n4272 A3=n4677 A2=n4772 
+ A1=n4780 
XU2639 CKAN2D0BWP7T $PINS VSS=VSS VDD=VDD Z=SA_core_pe_1_2_N24 A2=n4729 
+ A1=n4611 
XU1930 NR3D1BWP7T $PINS VSS=VSS VDD=VDD ZN=n1557 A1=n4671 A3=n4524 A2=n3868 
XU1881 NR3D1BWP7T $PINS VSS=VSS VDD=VDD ZN=n1496 A1=n4671 A3=n1479 A2=n4669 
XU1481 INVD2BWP7T $PINS VDD=VDD VSS=VSS I=SA_core_connect<123> ZN=n3757 
XU3142 INVD1BWP7T $PINS ZN=n2770 VSS=VSS VDD=VDD I=SA_core_connect<13> 
XU2041 MAOI222D2BWP7T $PINS ZN=n4227 VDD=VDD VSS=VSS A=n1616 C=n1614 B=n1615 
XU2513 INVD2BWP7T $PINS ZN=n2099 VSS=VSS VDD=VDD I=SA_core_output_row_1<1> 
XU3319 IAO21D1BWP7T $PINS VSS=VSS VDD=VDD ZN=n2912 B=n2943 A2=n2878 
+ A1=SA_core_shift_wire<13> 
XU2121 INVD2BWP7T $PINS ZN=n3829 VSS=VSS VDD=VDD I=SA_core_connect<84> 
XU1768 INVD1BWP7T $PINS ZN=n1479 VSS=VSS VDD=VDD I=SA_core_shift_wire<73> 
XU3173 IAO21D1BWP7T $PINS VSS=VSS VDD=VDD ZN=n2735 B=n2761 A2=n2730 
+ A1=SA_core_shift_wire<19> 
XU1526 AOI21D1BWP7T $PINS VSS=VSS A2=n1120 VDD=VDD A1=n4778 B=n1119 
+ ZN=SA_core_pe_0_0_N11 
XU2515 AOI21D1BWP7T $PINS VSS=VSS A2=n2099 VDD=VDD A1=n2100 B=n2112 ZN=n2106 
XU2924 AOI22D1BWP7T $PINS B1=n2482 A2=n2489 ZN=n2485 A1=n2483 VDD=VDD B2=n2490 
+ VSS=VSS 
Xicc_place1562 INVD2BWP7T $PINS VDD=VDD VSS=VSS I=n4616 ZN=n4617 
XU2010 AOI21D2BWP7T $PINS VSS=VSS A1=n1609 VDD=VDD B=n1621 ZN=n1615 A2=n1608 
XU2395 IAO22D2BWP7T $PINS A2=n1979 ZN=n1975 A1=n1977 B2=n1977 VDD=VDD B1=n1979 
+ VSS=VSS 
XU3068 AOI21D1BWP7T $PINS VSS=VSS A2=n2635 VDD=VDD A1=n3766 B=n2697 ZN=n2667 
XU2035 AOI21D1BWP7T $PINS VSS=VSS A2=n1623 VDD=VDD A1=n1624 B=n1659 ZN=n1629 
XU2211 MAOI222D2BWP7T $PINS ZN=n4211 VDD=VDD VSS=VSS A=n2847 C=n2845 B=n4418 
XU3419 NR3D1BWP7T $PINS VSS=VSS VDD=VDD ZN=n3036 A1=n4628 A3=n3840 A2=n4561 
XU3029 MAOI222D2BWP7T $PINS ZN=n2610 C=n2598 B=n2599 VDD=VDD A=n2600 VSS=VSS 
XU4995 AOI21D1BWP7T $PINS VSS=VSS A2=n2716 VDD=VDD A1=n2717 B=n4425 ZN=n4450 
XU2564 AOI21D1BWP7T $PINS VSS=VSS A2=n2142 VDD=VDD A1=n2143 B=n2203 ZN=n2173 
XU1675 INVD2BWP7T $PINS ZN=n3788 VSS=VSS VDD=VDD I=SA_core_connect<187> 
XU1931 AOI21D1BWP7T $PINS VSS=VSS A2=n1518 VDD=VDD A1=n4524 B=n1557 ZN=n1549 
XU3420 AOI21D1BWP7T $PINS VSS=VSS A2=n2997 VDD=VDD A1=n3840 B=n3036 ZN=n3015 
XU2668 IAO21D1BWP7T $PINS VSS=VSS VDD=VDD ZN=n2241 B=n2268 A2=n2236 
+ A1=SA_core_shift_wire<43> 
XU1891 MAOI222D2BWP7T $PINS ZN=n1489 C=n1483 B=n1484 VDD=VDD A=n1485 VSS=VSS 
XU2248 INVD1BWP7T $PINS ZN=n3841 VSS=VSS VDD=VDD I=SA_core_shift_wire<84> 
XU1799 INVD1BWP7T $PINS ZN=n1425 VSS=VSS VDD=VDD I=SA_core_connect<140> 
XU1787 AOI21D1BWP7T $PINS VSS=VSS A2=n1372 VDD=VDD A1=n3843 B=n4823 ZN=n1378 
XU2682 IAO21D1BWP7T $PINS VSS=VSS VDD=VDD ZN=n2267 B=n2288 A2=n2252 
+ A1=SA_core_shift_wire<44> 
XU1882 AOI21D2BWP7T $PINS VSS=VSS A2=n1478 VDD=VDD A1=n1479 B=n1496 ZN=n1484 
XU1755 INVD2BWP7T $PINS ZN=n1477 VSS=VSS VDD=VDD I=SA_core_shift_wire<72> 
XU2443 IAO22D2BWP7T $PINS A2=n2022 ZN=n2020 A1=n2021 B2=n2021 VDD=VDD B1=n2022 
+ VSS=VSS 
XU3028 OAI21D1BWP7T $PINS VSS=VSS VDD=VDD B=n2606 A1=SA_core_output_row_0<2> 
+ ZN=n2611 A2=n2597 
XU2294 INVD1BWP7T $PINS ZN=n3845 VSS=VSS VDD=VDD I=SA_core_connect<5> 
XU2019 OAI21D1BWP7T $PINS VSS=VSS VDD=VDD B=n1622 A1=SA_core_output_row_2<2> 
+ ZN=n1627 A2=n1613 
XU1920 AOI21D1BWP7T $PINS VSS=VSS A2=n1511 VDD=VDD A1=n1512 B=n1539 ZN=n1524 
XU2655 OAI21D1BWP7T $PINS VSS=VSS VDD=VDD B=n2235 A1=SA_core_shift_wire<42> 
+ ZN=n2239 A2=n2226 
XU1572 MAOI22D1BWP7T $PINS A2=n1165 ZN=n1164 A1=n1166 B2=n1166 VDD=VDD B1=n1165 
+ VSS=VSS 
XU2540 AOI21D1BWP7T $PINS VSS=VSS A2=n2114 VDD=VDD A1=n2115 B=n2150 ZN=n2120 
XU2759 INVD1BWP7T $PINS ZN=n2404 VSS=VSS VDD=VDD I=n4841 
XU2496 INVD1P5BWP7T $PINS ZN=n2169 VSS=VSS VDD=VDD I=SA_core_connect<173> 
XU2051 AOI21D1BWP7T $PINS VSS=VSS A2=n1641 VDD=VDD A1=n1642 B=n1677 ZN=n1658 
XU1884 IAO22D2BWP7T $PINS A2=n1485 ZN=n1481 A1=n1483 B2=n1483 VDD=VDD B1=n1485 
+ VSS=VSS 
XSA_B_3_shift_reg_reg_1__2_ DFQD0BWP7T $PINS VSS=VSS CP=clk_G2B4I9 D=n1008 
+ Q=SA_B_3_shift_reg_1__2_ VDD=VDD 
XSA_B_3_shift_reg_reg_1__1_ DFQD0BWP7T $PINS VSS=VSS CP=clk_G2B4I9 D=n1009 
+ Q=SA_B_3_shift_reg_1__1_ VDD=VDD 
XSA_B_3_shift_reg_reg_1__0_ DFQD0BWP7T $PINS VSS=VSS CP=clk_G2B4I9 D=n1010 
+ Q=SA_B_3_shift_reg_1__0_ VDD=VDD 
XSA_B_3_shift_reg_reg_0__7_ DFQD0BWP7T $PINS VSS=VSS CP=clk_G2B4I9 D=n1011 
+ Q=SA_B_3_shift_reg_0__7_ VDD=VDD 
XSA_B_3_shift_reg_reg_0__6_ DFQD0BWP7T $PINS VSS=VSS CP=clk_G2B4I9 D=n1012 
+ Q=SA_B_3_shift_reg_0__6_ VDD=VDD 
XSA_B_3_shift_reg_reg_0__5_ DFQD0BWP7T $PINS VSS=VSS CP=clk_G2B4I9 D=n1013 
+ Q=SA_B_3_shift_reg_0__5_ VDD=VDD 
XSA_B_3_shift_reg_reg_0__4_ DFQD0BWP7T $PINS VSS=VSS CP=clk_G2B4I9 D=n1014 
+ Q=SA_B_3_shift_reg_0__4_ VDD=VDD 
XSA_B_3_shift_reg_reg_0__3_ DFQD0BWP7T $PINS VSS=VSS CP=clk_G2B4I9 D=n1015 
+ Q=SA_B_3_shift_reg_0__3_ VDD=VDD 
XSA_B_3_shift_reg_reg_0__2_ DFQD0BWP7T $PINS VSS=VSS CP=clk_G2B4I9 D=n1016 
+ Q=SA_B_3_shift_reg_0__2_ VDD=VDD 
XSA_B_3_shift_reg_reg_0__1_ DFQD0BWP7T $PINS VSS=VSS CP=clk_G2B4I9 D=n1017 
+ Q=SA_B_3_shift_reg_0__1_ VDD=VDD 
XSA_B_3_shift_reg_reg_0__0_ DFQD0BWP7T $PINS VSS=VSS CP=clk_G2B4I9 D=n1018 
+ Q=SA_B_3_shift_reg_0__0_ VDD=VDD 
XSA_A_0_shift_reg_reg_6__7_ DFQD0BWP7T $PINS VSS=VSS CP=clk_G2B4I8 D=n1020 
+ Q=SA_row_0<7> VDD=VDD 
XSA_A_0_shift_reg_reg_6__6_ DFQD0BWP7T $PINS VSS=VSS CP=clk_G2B4I8 D=n1021 
+ Q=SA_row_0<6> VDD=VDD 
XSA_A_0_shift_reg_reg_6__5_ DFQD0BWP7T $PINS VSS=VSS CP=clk_G2B4I8 D=n1022 
+ Q=SA_row_0<5> VDD=VDD 
XSA_A_0_shift_reg_reg_6__4_ DFQD0BWP7T $PINS VSS=VSS CP=clk_G2B4I1 D=n1023 
+ Q=SA_row_0<4> VDD=VDD 
XSA_A_0_shift_reg_reg_6__3_ DFQD0BWP7T $PINS VSS=VSS CP=clk_G2B4I1 D=n1024 
+ Q=SA_row_0<3> VDD=VDD 
XSA_A_0_shift_reg_reg_6__1_ DFQD0BWP7T $PINS VSS=VSS CP=clk_G2B4I8 D=n1026 
+ Q=SA_row_0<1> VDD=VDD 
XSA_A_0_shift_reg_reg_5__7_ DFQD0BWP7T $PINS VSS=VSS CP=clk_G2B4I1 D=n1075 
+ Q=SA_A_0_shift_reg_5__7_ VDD=VDD 
XSA_A_0_shift_reg_reg_5__6_ DFQD0BWP7T $PINS VSS=VSS CP=clk_G2B4I8 D=n1028 
+ Q=SA_A_0_shift_reg_5__6_ VDD=VDD 
XSA_A_0_shift_reg_reg_5__5_ DFQD0BWP7T $PINS VSS=VSS CP=clk_G2B4I8 D=n1029 
+ Q=SA_A_0_shift_reg_5__5_ VDD=VDD 
XSA_A_0_shift_reg_reg_5__4_ DFQD0BWP7T $PINS VSS=VSS CP=clk_G2B4I1 D=n1030 
+ Q=SA_A_0_shift_reg_5__4_ VDD=VDD 
XSA_A_0_shift_reg_reg_5__3_ DFQD0BWP7T $PINS VSS=VSS CP=clk_G2B4I1 D=n1031 
+ Q=SA_A_0_shift_reg_5__3_ VDD=VDD 
XSA_A_0_shift_reg_reg_5__2_ DFQD0BWP7T $PINS VSS=VSS CP=clk_G2B4I8 D=n1032 
+ Q=SA_A_0_shift_reg_5__2_ VDD=VDD 
XSA_A_0_shift_reg_reg_5__1_ DFQD0BWP7T $PINS VSS=VSS CP=clk_G2B4I8 D=n1033 
+ Q=SA_A_0_shift_reg_5__1_ VDD=VDD 
XSA_A_0_shift_reg_reg_5__0_ DFQD0BWP7T $PINS VSS=VSS CP=clk_G2B4I8 D=n1034 
+ Q=SA_A_0_shift_reg_5__0_ VDD=VDD 
XSA_A_0_shift_reg_reg_4__7_ DFQD0BWP7T $PINS VSS=VSS CP=clk_G2B4I8 D=n1035 
+ Q=SA_A_0_shift_reg_4__7_ VDD=VDD 
XSA_A_0_shift_reg_reg_4__6_ DFQD0BWP7T $PINS VSS=VSS CP=clk_G2B4I8 D=n1036 
+ Q=SA_A_0_shift_reg_4__6_ VDD=VDD 
XSA_A_0_shift_reg_reg_4__5_ DFQD0BWP7T $PINS VSS=VSS CP=clk_G2B4I8 D=n1037 
+ Q=SA_A_0_shift_reg_4__5_ VDD=VDD 
XSA_A_0_shift_reg_reg_4__4_ DFQD0BWP7T $PINS VSS=VSS CP=clk_G2B4I1 D=n1038 
+ Q=SA_A_0_shift_reg_4__4_ VDD=VDD 
XSA_A_0_shift_reg_reg_4__3_ DFQD0BWP7T $PINS VSS=VSS CP=clk_G2B4I1 D=n1039 
+ Q=SA_A_0_shift_reg_4__3_ VDD=VDD 
XSA_A_0_shift_reg_reg_4__2_ DFQD0BWP7T $PINS VSS=VSS CP=clk_G2B4I8 D=n1040 
+ Q=SA_A_0_shift_reg_4__2_ VDD=VDD 
XSA_A_0_shift_reg_reg_4__1_ DFQD0BWP7T $PINS VSS=VSS CP=clk_G2B4I8 D=n1041 
+ Q=SA_A_0_shift_reg_4__1_ VDD=VDD 
XSA_A_0_shift_reg_reg_4__0_ DFQD0BWP7T $PINS VSS=VSS CP=clk_G2B4I8 D=n1042 
+ Q=SA_A_0_shift_reg_4__0_ VDD=VDD 
XSA_A_0_shift_reg_reg_3__7_ DFQD0BWP7T $PINS VSS=VSS CP=clk_G2B4I8 D=n1043 
+ Q=SA_A_0_shift_reg_3__7_ VDD=VDD 
XSA_A_0_shift_reg_reg_3__6_ DFQD0BWP7T $PINS VSS=VSS CP=clk_G2B4I8 D=n1044 
+ Q=SA_A_0_shift_reg_3__6_ VDD=VDD 
XSA_A_0_shift_reg_reg_3__5_ DFQD0BWP7T $PINS VSS=VSS CP=clk_G2B4I8 D=n1045 
+ Q=SA_A_0_shift_reg_3__5_ VDD=VDD 
XSA_A_0_shift_reg_reg_3__4_ DFQD0BWP7T $PINS VSS=VSS CP=clk_G2B4I1 D=n1046 
+ Q=SA_A_0_shift_reg_3__4_ VDD=VDD 
XSA_A_0_shift_reg_reg_3__3_ DFQD0BWP7T $PINS VSS=VSS CP=clk_G2B4I1 D=n1047 
+ Q=SA_A_0_shift_reg_3__3_ VDD=VDD 
XSA_A_0_shift_reg_reg_3__2_ DFQD0BWP7T $PINS VSS=VSS CP=clk_G2B4I8 D=n1048 
+ Q=SA_A_0_shift_reg_3__2_ VDD=VDD 
XSA_A_0_shift_reg_reg_3__1_ DFQD0BWP7T $PINS VSS=VSS CP=clk_G2B4I8 D=n1049 
+ Q=SA_A_0_shift_reg_3__1_ VDD=VDD 
XSA_A_0_shift_reg_reg_3__0_ DFQD0BWP7T $PINS VSS=VSS CP=clk_G2B4I8 D=n1050 
+ Q=SA_A_0_shift_reg_3__0_ VDD=VDD 
XSA_A_0_shift_reg_reg_2__7_ DFQD0BWP7T $PINS VSS=VSS CP=clk_G2B4I1 D=n1051 
+ Q=SA_A_0_shift_reg_2__7_ VDD=VDD 
XSA_A_0_shift_reg_reg_2__6_ DFQD0BWP7T $PINS VSS=VSS CP=clk_G2B4I8 D=n1052 
+ Q=SA_A_0_shift_reg_2__6_ VDD=VDD 
XSA_A_0_shift_reg_reg_2__5_ DFQD0BWP7T $PINS VSS=VSS CP=clk_G2B4I8 D=n1053 
+ Q=SA_A_0_shift_reg_2__5_ VDD=VDD 
XSA_A_0_shift_reg_reg_2__4_ DFQD0BWP7T $PINS VSS=VSS CP=clk_G2B4I8 D=n1054 
+ Q=SA_A_0_shift_reg_2__4_ VDD=VDD 
XSA_A_0_shift_reg_reg_2__3_ DFQD0BWP7T $PINS VSS=VSS CP=clk_G2B4I1 D=n1055 
+ Q=SA_A_0_shift_reg_2__3_ VDD=VDD 
XSA_A_0_shift_reg_reg_2__2_ DFQD0BWP7T $PINS VSS=VSS CP=clk_G2B4I8 D=n1056 
+ Q=SA_A_0_shift_reg_2__2_ VDD=VDD 
XSA_A_0_shift_reg_reg_2__1_ DFQD0BWP7T $PINS VSS=VSS CP=clk_G2B4I8 D=n1057 
+ Q=SA_A_0_shift_reg_2__1_ VDD=VDD 
XSA_A_0_shift_reg_reg_2__0_ DFQD0BWP7T $PINS VSS=VSS CP=clk_G2B4I8 D=n1058 
+ Q=SA_A_0_shift_reg_2__0_ VDD=VDD 
XSA_A_0_shift_reg_reg_1__7_ DFQD0BWP7T $PINS VSS=VSS CP=clk_G2B4I1 D=n1059 
+ Q=SA_A_0_shift_reg_1__7_ VDD=VDD 
XSA_A_0_shift_reg_reg_1__6_ DFQD0BWP7T $PINS VSS=VSS CP=clk_G2B4I8 D=n1060 
+ Q=SA_A_0_shift_reg_1__6_ VDD=VDD 
XSA_A_0_shift_reg_reg_1__5_ DFQD0BWP7T $PINS VSS=VSS CP=clk_G2B4I8 D=n1061 
+ Q=SA_A_0_shift_reg_1__5_ VDD=VDD 
XSA_A_0_shift_reg_reg_1__4_ DFQD0BWP7T $PINS VSS=VSS CP=clk_G2B4I1 D=n1062 
+ Q=SA_A_0_shift_reg_1__4_ VDD=VDD 
XSA_A_0_shift_reg_reg_1__3_ DFQD0BWP7T $PINS VSS=VSS CP=clk_G2B4I1 D=n1063 
+ Q=SA_A_0_shift_reg_1__3_ VDD=VDD 
XSA_A_0_shift_reg_reg_1__2_ DFQD0BWP7T $PINS VSS=VSS CP=clk_G2B4I8 D=n1064 
+ Q=SA_A_0_shift_reg_1__2_ VDD=VDD 
XSA_A_0_shift_reg_reg_1__1_ DFQD0BWP7T $PINS VSS=VSS CP=clk_G2B4I8 D=n1065 
+ Q=SA_A_0_shift_reg_1__1_ VDD=VDD 
XSA_A_0_shift_reg_reg_1__0_ DFQD0BWP7T $PINS VSS=VSS CP=clk_G2B4I8 D=n1066 
+ Q=SA_A_0_shift_reg_1__0_ VDD=VDD 
XSA_A_0_shift_reg_reg_0__7_ DFQD0BWP7T $PINS VSS=VSS CP=clk_G2B4I8 D=n1067 
+ Q=SA_A_0_shift_reg_0__7_ VDD=VDD 
XSA_A_0_shift_reg_reg_0__6_ DFQD0BWP7T $PINS VSS=VSS CP=clk_G2B4I8 D=n1068 
+ Q=SA_A_0_shift_reg_0__6_ VDD=VDD 
XSA_A_0_shift_reg_reg_0__5_ DFQD0BWP7T $PINS VSS=VSS CP=clk_G2B4I8 D=n1069 
+ Q=SA_A_0_shift_reg_0__5_ VDD=VDD 
XSA_A_0_shift_reg_reg_0__4_ DFQD0BWP7T $PINS VSS=VSS CP=clk_G2B4I1 D=n1070 
+ Q=SA_A_0_shift_reg_0__4_ VDD=VDD 
XSA_A_0_shift_reg_reg_0__3_ DFQD0BWP7T $PINS VSS=VSS CP=clk_G2B4I8 D=n1071 
+ Q=SA_A_0_shift_reg_0__3_ VDD=VDD 
XSA_A_0_shift_reg_reg_0__2_ DFQD0BWP7T $PINS VSS=VSS CP=clk_G2B4I8 D=n1072 
+ Q=SA_A_0_shift_reg_0__2_ VDD=VDD 
XSA_A_0_shift_reg_reg_0__1_ DFQD0BWP7T $PINS VSS=VSS CP=clk_G2B4I8 D=n1073 
+ Q=SA_A_0_shift_reg_0__1_ VDD=VDD 
XSA_A_0_shift_reg_reg_0__0_ DFQD0BWP7T $PINS VSS=VSS CP=clk_G2B4I8 D=n1074 
+ Q=SA_A_0_shift_reg_0__0_ VDD=VDD 
XSA_ctrl_state_compute_out_counter_reg_0_ DFQD0BWP7T $PINS VSS=VSS 
+ CP=clk_G2B4I10 D=n1076 Q=SA_ctrl_state_compute_out_counter<0> VDD=VDD 
XSA_ctrl_state_compute_out_counter_reg_1_ DFQD0BWP7T $PINS VSS=VSS 
+ CP=clk_G2B4I10 D=n1077 Q=SA_ctrl_state_compute_out_counter<1> VDD=VDD 
XSA_ctrl_state_load_AB_reg DFQD0BWP7T $PINS VSS=VSS CP=clk_G2B4I5 D=n1079 
+ Q=SA_ctrl_state_load_AB VDD=VDD 
XSA_ctrl_state_compute_pump_reg_3_ DFQD0BWP7T $PINS VSS=VSS CP=clk_G2B4I5 
+ D=n1084 Q=SA_ctrl_state_compute_pump<3> VDD=VDD 
XSA_ctrl_state_compute_pump_reg_2_ DFQD0BWP7T $PINS VSS=VSS CP=clk_G2B4I4 
+ D=n1085 Q=SA_ctrl_state_compute_pump<2> VDD=VDD 
XSA_ctrl_state_compute_pump_reg_1_ DFQD0BWP7T $PINS VSS=VSS CP=clk_G2B4I4 
+ D=n1086 Q=SA_ctrl_state_compute_pump<1> VDD=VDD 
XSA_ctrl_state_compute_pump_reg_0_ DFQD0BWP7T $PINS VSS=VSS CP=clk_G2B4I4 
+ D=n1087 Q=SA_ctrl_state_compute_pump<0> VDD=VDD 
XSA_ctrl_state_overall_reg_0_ DFQD0BWP7T $PINS VSS=VSS CP=clk_G2B4I5 D=n1089 
+ Q=SA_ctrl_state_overall<0> VDD=VDD 
Xu_pad_data_out_8 PDDW0208CDG $PINS PE=SA_ctrl__Logic0_ PAD=ack_p 
+ OEN=SA_ctrl__Logic0_ IE=SA_ctrl__Logic0_ I=ack DS=n628 
Xu_pad_data_out_7 PDDW0208CDG $PINS PE=SA_ctrl__Logic0_ PAD=p_shift_out<7> 
+ OEN=SA_ctrl__Logic0_ IE=SA_ctrl__Logic0_ I=shift_out<7> DS=n628 
Xu_pad_data_out_6 PDDW0208CDG $PINS PE=SA_ctrl__Logic0_ PAD=p_shift_out<6> 
+ OEN=SA_ctrl__Logic0_ IE=SA_ctrl__Logic0_ I=shift_out<6> DS=n628 
Xu_pad_data_out_5 PDDW0208CDG $PINS PE=SA_ctrl__Logic0_ PAD=p_shift_out<5> 
+ OEN=SA_ctrl__Logic0_ IE=SA_ctrl__Logic0_ I=shift_out<5> DS=n628 
Xu_pad_data_out_4 PDDW0208CDG $PINS PE=SA_ctrl__Logic0_ PAD=p_shift_out<4> 
+ OEN=SA_ctrl__Logic0_ IE=SA_ctrl__Logic0_ I=shift_out<4> DS=n628 
Xu_pad_data_out_3 PDDW0208CDG $PINS PE=SA_ctrl__Logic0_ PAD=p_shift_out<3> 
+ OEN=SA_ctrl__Logic0_ IE=SA_ctrl__Logic0_ I=n4761 DS=n628 
Xu_pad_data_out_2 PDDW0208CDG $PINS PE=SA_ctrl__Logic0_ PAD=p_shift_out<2> 
+ OEN=SA_ctrl__Logic0_ IE=SA_ctrl__Logic0_ I=shift_out<2> DS=n628 
Xu_pad_data_out_1 PDDW0208CDG $PINS PE=SA_ctrl__Logic0_ PAD=p_shift_out<1> 
+ OEN=SA_ctrl__Logic0_ IE=SA_ctrl__Logic0_ I=shift_out<1> DS=n628 
Xu_pad_data_out_0 PDDW0208CDG $PINS PE=SA_ctrl__Logic0_ PAD=p_shift_out<0> 
+ OEN=SA_ctrl__Logic0_ IE=SA_ctrl__Logic0_ I=shift_out<0> DS=n628 
Xu_pad_data_in_8 PDDW0208CDG $PINS PE=n628 PAD=en_p OEN=n628 IE=n628 
+ I=SA_ctrl__Logic0_ DS=SA_ctrl__Logic0_ C=en 