*SPEF "IEEE 1481-1999"
*DESIGN "clefia_128"
*DATE "Sun Jan  2 03:01:40 2022"
*VENDOR "SYNOPSYS INC"
*PROGRAM "Synopsys Design Compiler cmos"
*VERSION "L-2016.03-SP5"
*DESIGN_FLOW "SYNTHESIS"
*DIVIDER /
*DELIMITER :
*BUS_DELIMITER []
*T_UNIT 1.0 NS
*C_UNIT 1.0 PF
*R_UNIT 1.0 KOHM
*L_UNIT 1.0 HENRY

*PORTS

c\[127\] O *L 1.033e-01 *S 1.043e+00 3.332e-01 
c\[126\] O *L 1.033e-01 *S 9.472e-01 3.066e-01 
c\[125\] O *L 1.033e-01 *S 9.387e-01 3.042e-01 
c\[124\] O *L 1.033e-01 *S 1.159e+00 3.655e-01 
c\[123\] O *L 1.033e-01 *S 9.392e-01 3.043e-01 
c\[122\] O *L 1.033e-01 *S 9.392e-01 3.044e-01 
c\[121\] O *L 1.033e-01 *S 9.385e-01 3.042e-01 
c\[120\] O *L 1.033e-01 *S 1.060e+00 5.799e-01 
c\[119\] O *L 1.033e-01 *S 1.004e+00 5.514e-01 
c\[118\] O *L 1.033e-01 *S 9.378e-01 3.040e-01 
c\[117\] O *L 1.033e-01 *S 1.083e+00 3.408e-01 
c\[116\] O *L 1.033e-01 *S 9.667e-01 5.322e-01 
c\[115\] O *L 1.033e-01 *S 9.411e-01 3.049e-01 
c\[114\] O *L 1.033e-01 *S 1.059e+00 3.342e-01 
c\[113\] O *L 1.033e-01 *S 1.042e+00 3.330e-01 
c\[112\] O *L 1.033e-01 *S 9.809e-01 5.394e-01 
c\[111\] O *L 1.033e-01 *S 9.789e-01 3.154e-01 
c\[110\] O *L 1.033e-01 *S 9.510e-01 3.044e-01 
c\[109\] O *L 1.033e-01 *S 9.712e-01 3.100e-01 
c\[108\] O *L 1.033e-01 *S 1.039e+00 5.690e-01 
c\[107\] O *L 1.033e-01 *S 9.424e-01 3.020e-01 
c\[106\] O *L 1.033e-01 *S 1.452e+00 4.413e-01 
c\[105\] O *L 1.033e-01 *S 9.691e-01 3.094e-01 
c\[104\] O *L 1.033e-01 *S 1.021e+00 3.238e-01 
c\[103\] O *L 1.033e-01 *S 1.156e+00 3.648e-01 
c\[102\] O *L 1.033e-01 *S 1.141e+00 3.566e-01 
c\[101\] O *L 1.033e-01 *S 1.149e+00 3.590e-01 
c\[100\] O *L 1.033e-01 *S 1.234e+00 3.822e-01 
c\[99\] O *L 1.033e-01 *S 1.384e+00 4.232e-01 
c\[98\] O *L 1.033e-01 *S 1.361e+00 4.170e-01 
c\[97\] O *L 1.033e-01 *S 1.101e+00 6.008e-01 
c\[96\] O *L 1.033e-01 *S 1.161e+00 3.661e-01 
c\[95\] O *L 1.033e-01 *S 1.082e+00 5.914e-01 
c\[94\] O *L 1.033e-01 *S 1.015e+00 5.570e-01 
c\[93\] O *L 1.033e-01 *S 1.097e+00 5.988e-01 
c\[92\] O *L 1.033e-01 *S 1.173e+00 6.378e-01 
c\[91\] O *L 1.033e-01 *S 1.005e+00 5.516e-01 
c\[90\] O *L 1.033e-01 *S 1.039e+00 5.691e-01 
c\[89\] O *L 1.033e-01 *S 1.021e+00 5.600e-01 
c\[88\] O *L 1.033e-01 *S 1.160e+00 6.312e-01 
c\[87\] O *L 1.033e-01 *S 1.069e+00 5.844e-01 
c\[86\] O *L 1.033e-01 *S 1.018e+00 5.586e-01 
c\[85\] O *L 1.033e-01 *S 1.103e+00 6.020e-01 
c\[84\] O *L 1.033e-01 *S 1.080e+00 5.904e-01 
c\[83\] O *L 1.033e-01 *S 1.045e+00 5.721e-01 
c\[82\] O *L 1.033e-01 *S 3.012e-01 1.967e-01 
c\[81\] O *L 1.033e-01 *S 1.101e+00 6.008e-01 
c\[80\] O *L 1.033e-01 *S 1.070e+00 5.849e-01 
c\[79\] O *L 1.033e-01 *S 1.094e+00 5.976e-01 
c\[78\] O *L 1.033e-01 *S 1.079e+00 5.895e-01 
c\[77\] O *L 1.033e-01 *S 1.140e+00 6.210e-01 
c\[76\] O *L 1.033e-01 *S 1.019e+00 5.590e-01 
c\[75\] O *L 1.033e-01 *S 1.019e+00 5.592e-01 
c\[74\] O *L 1.033e-01 *S 1.255e+00 6.797e-01 
c\[73\] O *L 1.033e-01 *S 1.141e+00 6.216e-01 
c\[72\] O *L 1.033e-01 *S 1.141e+00 6.216e-01 
c\[71\] O *L 1.033e-01 *S 2.697e-01 1.759e-01 
c\[70\] O *L 1.033e-01 *S 1.159e+00 6.308e-01 
c\[69\] O *L 1.033e-01 *S 1.202e+00 6.528e-01 
c\[68\] O *L 1.033e-01 *S 1.249e+00 6.766e-01 
c\[67\] O *L 1.033e-01 *S 1.222e+00 6.628e-01 
c\[66\] O *L 1.033e-01 *S 1.365e+00 7.363e-01 
c\[65\] O *L 1.033e-01 *S 1.146e+00 6.238e-01 
c\[64\] O *L 1.033e-01 *S 1.188e+00 6.453e-01 
c\[63\] O *L 1.033e-01 *S 1.050e+00 5.749e-01 
c\[62\] O *L 1.033e-01 *S 9.642e-01 3.113e-01 
c\[61\] O *L 1.033e-01 *S 9.388e-01 3.042e-01 
c\[60\] O *L 1.033e-01 *S 1.142e+00 3.609e-01 
c\[59\] O *L 1.033e-01 *S 9.408e-01 3.048e-01 
c\[58\] O *L 1.033e-01 *S 9.381e-01 3.040e-01 
c\[57\] O *L 1.033e-01 *S 9.374e-01 3.039e-01 
c\[56\] O *L 1.033e-01 *S 1.058e+00 5.791e-01 
c\[55\] O *L 1.033e-01 *S 9.939e-01 5.461e-01 
c\[54\] O *L 1.033e-01 *S 9.388e-01 3.042e-01 
c\[53\] O *L 1.033e-01 *S 1.095e+00 3.478e-01 
c\[52\] O *L 1.033e-01 *S 9.376e-01 3.039e-01 
c\[51\] O *L 1.033e-01 *S 9.427e-01 3.053e-01 
c\[50\] O *L 1.033e-01 *S 9.374e-01 3.039e-01 
c\[49\] O *L 1.033e-01 *S 1.117e+00 3.538e-01 
c\[48\] O *L 1.033e-01 *S 9.960e-01 5.472e-01 
c\[47\] O *L 1.033e-01 *S 9.380e-01 3.040e-01 
c\[46\] O *L 1.033e-01 *S 1.108e+00 6.045e-01 
c\[45\] O *L 1.033e-01 *S 1.103e+00 3.499e-01 
c\[44\] O *L 1.033e-01 *S 9.374e-01 3.039e-01 
c\[43\] O *L 1.033e-01 *S 9.702e-01 3.097e-01 
c\[42\] O *L 1.033e-01 *S 1.045e+00 3.339e-01 
c\[41\] O *L 1.033e-01 *S 1.048e+00 3.346e-01 
c\[40\] O *L 1.033e-01 *S 1.011e+00 3.244e-01 
c\[39\] O *L 1.033e-01 *S 1.098e+00 3.449e-01 
c\[38\] O *L 1.033e-01 *S 1.138e+00 3.559e-01 
c\[37\] O *L 1.033e-01 *S 1.180e+00 3.673e-01 
c\[36\] O *L 1.033e-01 *S 1.166e+00 3.635e-01 
c\[35\] O *L 1.033e-01 *S 1.356e+00 4.155e-01 
c\[34\] O *L 1.033e-01 *S 1.350e+00 4.141e-01 
c\[33\] O *L 1.033e-01 *S 1.080e+00 5.900e-01 
c\[32\] O *L 1.033e-01 *S 1.039e+00 3.321e-01 
c\[31\] O *L 1.033e-01 *S 1.149e+00 6.257e-01 
c\[30\] O *L 1.033e-01 *S 1.050e+00 5.747e-01 
c\[29\] O *L 1.033e-01 *S 1.146e+00 6.242e-01 
c\[28\] O *L 1.033e-01 *S 1.212e+00 6.579e-01 
c\[27\] O *L 1.033e-01 *S 1.031e+00 5.652e-01 
c\[26\] O *L 1.033e-01 *S 1.086e+00 5.931e-01 
c\[25\] O *L 1.033e-01 *S 1.054e+00 5.766e-01 
c\[24\] O *L 1.033e-01 *S 1.149e+00 6.254e-01 
c\[23\] O *L 1.033e-01 *S 9.746e-01 5.363e-01 
c\[22\] O *L 1.033e-01 *S 1.110e+00 6.057e-01 
c\[21\] O *L 1.033e-01 *S 1.090e+00 5.954e-01 
c\[20\] O *L 1.033e-01 *S 1.041e+00 5.703e-01 
c\[19\] O *L 1.033e-01 *S 1.046e+00 5.727e-01 
c\[18\] O *L 1.033e-01 *S 1.154e+00 6.279e-01 
c\[17\] O *L 1.033e-01 *S 1.225e+00 6.644e-01 
c\[16\] O *L 1.033e-01 *S 1.091e+00 5.957e-01 
c\[15\] O *L 1.033e-01 *S 1.285e+00 6.949e-01 
c\[14\] O *L 1.033e-01 *S 1.089e+00 5.949e-01 
c\[13\] O *L 1.033e-01 *S 1.141e+00 6.215e-01 
c\[12\] O *L 1.033e-01 *S 1.033e+00 5.661e-01 
c\[11\] O *L 1.033e-01 *S 1.168e+00 6.352e-01 
c\[10\] O *L 1.033e-01 *S 1.220e+00 6.621e-01 
c\[9\] O *L 1.033e-01 *S 6.788e-01 4.015e-01 
c\[8\] O *L 1.033e-01 *S 1.136e+00 6.190e-01 
c\[7\] O *L 1.033e-01 *S 1.124e+00 6.129e-01 
c\[6\] O *L 1.033e-01 *S 1.143e+00 6.226e-01 
c\[5\] O *L 1.033e-01 *S 1.168e+00 6.350e-01 
c\[4\] O *L 1.033e-01 *S 1.221e+00 6.622e-01 
c\[3\] O *L 1.033e-01 *S 2.835e-01 1.836e-01 
c\[2\] O *L 1.033e-01 *S 1.290e+00 6.977e-01 
c\[1\] O *L 1.033e-01 *S 1.141e+00 6.212e-01 
c\[0\] O *L 1.033e-01 *S 1.113e+00 6.072e-01 
done O *L 1.033e-01 *S 9.677e-01 5.327e-01 
clk I *L 0.000e+00 *S 0.000e+00 0.000e+00 *D BUFFD1BWP7T 
reset_n I *L 0.000e+00 *S 0.000e+00 0.000e+00 *D BUFFD1BWP7T 
k\[127\] I *L 0.000e+00 *S 1.380e-01 8.904e-02 *D BUFFD1BWP7T 
k\[126\] I *L 0.000e+00 *S 1.926e-01 1.206e-01 *D BUFFD1BWP7T 
k\[125\] I *L 0.000e+00 *S 1.335e-01 8.623e-02 *D BUFFD1BWP7T 
k\[124\] I *L 0.000e+00 *S 2.024e-01 1.260e-01 *D BUFFD1BWP7T 
k\[123\] I *L 0.000e+00 *S 1.067e-01 6.950e-02 *D BUFFD1BWP7T 
k\[122\] I *L 0.000e+00 *S 1.299e-01 8.402e-02 *D BUFFD1BWP7T 
k\[121\] I *L 0.000e+00 *S 1.076e-01 7.008e-02 *D BUFFD1BWP7T 
k\[120\] I *L 0.000e+00 *S 1.800e-01 1.138e-01 *D BUFFD1BWP7T 
k\[119\] I *L 0.000e+00 *S 1.469e-01 9.460e-02 *D BUFFD1BWP7T 
k\[118\] I *L 0.000e+00 *S 1.261e-01 8.163e-02 *D BUFFD1BWP7T 
k\[117\] I *L 0.000e+00 *S 1.779e-01 1.126e-01 *D BUFFD1BWP7T 
k\[116\] I *L 0.000e+00 *S 1.602e-01 1.029e-01 *D BUFFD1BWP7T 
k\[115\] I *L 0.000e+00 *S 1.433e-01 9.238e-02 *D BUFFD1BWP7T 
k\[114\] I *L 0.000e+00 *S 1.361e-01 8.785e-02 *D BUFFD1BWP7T 
k\[113\] I *L 0.000e+00 *S 2.473e-01 1.505e-01 *D BUFFD1BWP7T 
k\[112\] I *L 0.000e+00 *S 1.432e-01 9.230e-02 *D BUFFD1BWP7T 
k\[111\] I *L 0.000e+00 *S 1.494e-01 9.616e-02 *D BUFFD1BWP7T 
k\[110\] I *L 0.000e+00 *S 1.289e-01 8.339e-02 *D BUFFD1BWP7T 
k\[109\] I *L 0.000e+00 *S 1.848e-01 1.164e-01 *D BUFFD1BWP7T 
k\[108\] I *L 0.000e+00 *S 1.241e-01 8.033e-02 *D BUFFD1BWP7T 
k\[107\] I *L 0.000e+00 *S 1.056e-01 6.878e-02 *D BUFFD1BWP7T 
k\[106\] I *L 0.000e+00 *S 2.412e-01 1.471e-01 *D BUFFD1BWP7T 
k\[105\] I *L 0.000e+00 *S 1.659e-01 1.060e-01 *D BUFFD1BWP7T 
k\[104\] I *L 0.000e+00 *S 2.213e-01 1.363e-01 *D BUFFD1BWP7T 
k\[103\] I *L 0.000e+00 *S 2.179e-01 1.344e-01 *D BUFFD1BWP7T 
k\[102\] I *L 0.000e+00 *S 2.457e-01 1.496e-01 *D BUFFD1BWP7T 
k\[101\] I *L 0.000e+00 *S 2.236e-01 1.375e-01 *D BUFFD1BWP7T 
k\[100\] I *L 0.000e+00 *S 2.211e-01 1.361e-01 *D BUFFD1BWP7T 
k\[99\] I *L 0.000e+00 *S 1.989e-01 1.240e-01 *D BUFFD1BWP7T 
k\[98\] I *L 0.000e+00 *S 2.039e-01 1.268e-01 *D BUFFD1BWP7T 
k\[97\] I *L 0.000e+00 *S 1.707e-01 1.086e-01 *D BUFFD1BWP7T 
k\[96\] I *L 0.000e+00 *S 2.437e-01 1.485e-01 *D BUFFD1BWP7T 
k\[95\] I *L 0.000e+00 *S 1.336e-01 8.633e-02 *D BUFFD1BWP7T 
k\[94\] I *L 0.000e+00 *S 9.663e-02 6.320e-02 *D BUFFD1BWP7T 
k\[93\] I *L 0.000e+00 *S 1.694e-01 1.080e-01 *D BUFFD1BWP7T 
k\[92\] I *L 0.000e+00 *S 1.979e-01 1.235e-01 *D BUFFD1BWP7T 
k\[91\] I *L 0.000e+00 *S 1.006e-01 6.565e-02 *D BUFFD1BWP7T 
k\[90\] I *L 0.000e+00 *S 1.725e-01 1.097e-01 *D BUFFD1BWP7T 
k\[89\] I *L 0.000e+00 *S 9.214e-02 6.039e-02 *D BUFFD1BWP7T 
k\[88\] I *L 0.000e+00 *S 1.378e-01 8.896e-02 *D BUFFD1BWP7T 
k\[87\] I *L 0.000e+00 *S 7.298e-02 4.819e-02 *D BUFFD1BWP7T 
k\[86\] I *L 0.000e+00 *S 1.082e-01 7.045e-02 *D BUFFD1BWP7T 
k\[85\] I *L 0.000e+00 *S 1.946e-01 1.217e-01 *D BUFFD1BWP7T 
k\[84\] I *L 0.000e+00 *S 1.736e-01 1.102e-01 *D BUFFD1BWP7T 
k\[83\] I *L 0.000e+00 *S 1.286e-01 8.317e-02 *D BUFFD1BWP7T 
k\[82\] I *L 0.000e+00 *S 1.466e-01 9.446e-02 *D BUFFD1BWP7T 
k\[81\] I *L 0.000e+00 *S 1.871e-01 1.176e-01 *D BUFFD1BWP7T 
k\[80\] I *L 0.000e+00 *S 1.943e-01 1.215e-01 *D BUFFD1BWP7T 
k\[79\] I *L 0.000e+00 *S 2.153e-01 1.330e-01 *D BUFFD1BWP7T 
k\[78\] I *L 0.000e+00 *S 1.623e-01 1.041e-01 *D BUFFD1BWP7T 
k\[77\] I *L 0.000e+00 *S 2.147e-01 1.326e-01 *D BUFFD1BWP7T 
k\[76\] I *L 0.000e+00 *S 7.545e-02 4.982e-02 *D BUFFD1BWP7T 
k\[75\] I *L 0.000e+00 *S 1.222e-01 7.917e-02 *D BUFFD1BWP7T 
k\[74\] I *L 0.000e+00 *S 2.297e-01 1.409e-01 *D BUFFD1BWP7T 
k\[73\] I *L 0.000e+00 *S 2.387e-01 1.458e-01 *D BUFFD1BWP7T 
k\[72\] I *L 0.000e+00 *S 1.614e-01 1.036e-01 *D BUFFD1BWP7T 
k\[71\] I *L 0.000e+00 *S 1.479e-01 9.527e-02 *D BUFFD1BWP7T 
k\[70\] I *L 0.000e+00 *S 2.440e-01 1.486e-01 *D BUFFD1BWP7T 
k\[69\] I *L 0.000e+00 *S 1.895e-01 1.189e-01 *D BUFFD1BWP7T 
k\[68\] I *L 0.000e+00 *S 2.016e-01 1.255e-01 *D BUFFD1BWP7T 
k\[67\] I *L 0.000e+00 *S 2.048e-01 1.273e-01 *D BUFFD1BWP7T 
k\[66\] I *L 0.000e+00 *S 2.382e-01 1.455e-01 *D BUFFD1BWP7T 
k\[65\] I *L 0.000e+00 *S 1.837e-01 1.157e-01 *D BUFFD1BWP7T 
k\[64\] I *L 0.000e+00 *S 1.974e-01 1.232e-01 *D BUFFD1BWP7T 
k\[63\] I *L 0.000e+00 *S 1.383e-01 8.923e-02 *D BUFFD1BWP7T 
k\[62\] I *L 0.000e+00 *S 1.096e-01 7.128e-02 *D BUFFD1BWP7T 
k\[61\] I *L 0.000e+00 *S 1.433e-01 9.234e-02 *D BUFFD1BWP7T 
k\[60\] I *L 0.000e+00 *S 2.180e-01 1.345e-01 *D BUFFD1BWP7T 
k\[59\] I *L 0.000e+00 *S 1.029e-01 6.710e-02 *D BUFFD1BWP7T 
k\[58\] I *L 0.000e+00 *S 1.262e-01 8.165e-02 *D BUFFD1BWP7T 
k\[57\] I *L 0.000e+00 *S 1.116e-01 7.256e-02 *D BUFFD1BWP7T 
k\[56\] I *L 0.000e+00 *S 2.008e-01 1.251e-01 *D BUFFD1BWP7T 
k\[55\] I *L 0.000e+00 *S 1.268e-01 8.202e-02 *D BUFFD1BWP7T 
k\[54\] I *L 0.000e+00 *S 1.236e-01 8.006e-02 *D BUFFD1BWP7T 
k\[53\] I *L 0.000e+00 *S 2.227e-01 1.370e-01 *D BUFFD1BWP7T 
k\[52\] I *L 0.000e+00 *S 1.611e-01 1.034e-01 *D BUFFD1BWP7T 
k\[51\] I *L 0.000e+00 *S 1.284e-01 8.304e-02 *D BUFFD1BWP7T 
k\[50\] I *L 0.000e+00 *S 1.305e-01 8.436e-02 *D BUFFD1BWP7T 
k\[49\] I *L 0.000e+00 *S 2.367e-01 1.447e-01 *D BUFFD1BWP7T 
k\[48\] I *L 0.000e+00 *S 1.532e-01 9.855e-02 *D BUFFD1BWP7T 
k\[47\] I *L 0.000e+00 *S 2.444e-01 1.489e-01 *D BUFFD1BWP7T 
k\[46\] I *L 0.000e+00 *S 2.021e-01 1.258e-01 *D BUFFD1BWP7T 
k\[45\] I *L 0.000e+00 *S 1.220e-01 7.903e-02 *D BUFFD1BWP7T 
k\[44\] I *L 0.000e+00 *S 2.101e-01 1.301e-01 *D BUFFD1BWP7T 
k\[43\] I *L 0.000e+00 *S 1.543e-01 9.926e-02 *D BUFFD1BWP7T 
k\[42\] I *L 0.000e+00 *S 2.669e-01 1.612e-01 *D BUFFD1BWP7T 
k\[41\] I *L 0.000e+00 *S 2.580e-01 1.563e-01 *D BUFFD1BWP7T 
k\[40\] I *L 0.000e+00 *S 1.667e-01 1.065e-01 *D BUFFD1BWP7T 
k\[39\] I *L 0.000e+00 *S 1.722e-01 1.095e-01 *D BUFFD1BWP7T 
k\[38\] I *L 0.000e+00 *S 1.501e-01 9.665e-02 *D BUFFD1BWP7T 
k\[37\] I *L 0.000e+00 *S 1.968e-01 1.229e-01 *D BUFFD1BWP7T 
k\[36\] I *L 0.000e+00 *S 2.178e-01 1.343e-01 *D BUFFD1BWP7T 
k\[35\] I *L 0.000e+00 *S 2.040e-01 1.268e-01 *D BUFFD1BWP7T 
k\[34\] I *L 0.000e+00 *S 2.202e-01 1.357e-01 *D BUFFD1BWP7T 
k\[33\] I *L 0.000e+00 *S 2.079e-01 1.290e-01 *D BUFFD1BWP7T 
k\[32\] I *L 0.000e+00 *S 2.226e-01 1.370e-01 *D BUFFD1BWP7T 
k\[31\] I *L 0.000e+00 *S 1.799e-01 1.137e-01 *D BUFFD1BWP7T 
k\[30\] I *L 0.000e+00 *S 1.184e-01 7.678e-02 *D BUFFD1BWP7T 
k\[29\] I *L 0.000e+00 *S 1.787e-01 1.130e-01 *D BUFFD1BWP7T 
k\[28\] I *L 0.000e+00 *S 2.595e-01 1.571e-01 *D BUFFD1BWP7T 
k\[27\] I *L 0.000e+00 *S 1.049e-01 6.835e-02 *D BUFFD1BWP7T 
k\[26\] I *L 0.000e+00 *S 1.538e-01 9.892e-02 *D BUFFD1BWP7T 
k\[25\] I *L 0.000e+00 *S 1.121e-01 7.286e-02 *D BUFFD1BWP7T 
k\[24\] I *L 0.000e+00 *S 1.726e-01 1.097e-01 *D BUFFD1BWP7T 
k\[23\] I *L 0.000e+00 *S 9.196e-02 6.028e-02 *D BUFFD1BWP7T 
k\[22\] I *L 0.000e+00 *S 1.314e-01 8.494e-02 *D BUFFD1BWP7T 
k\[21\] I *L 0.000e+00 *S 1.606e-01 1.032e-01 *D BUFFD1BWP7T 
k\[20\] I *L 0.000e+00 *S 1.117e-01 7.262e-02 *D BUFFD1BWP7T 
k\[19\] I *L 0.000e+00 *S 1.378e-01 8.891e-02 *D BUFFD1BWP7T 
k\[18\] I *L 0.000e+00 *S 1.937e-01 1.212e-01 *D BUFFD1BWP7T 
k\[17\] I *L 0.000e+00 *S 2.383e-01 1.455e-01 *D BUFFD1BWP7T 
k\[16\] I *L 0.000e+00 *S 1.581e-01 1.016e-01 *D BUFFD1BWP7T 
k\[15\] I *L 0.000e+00 *S 2.281e-01 1.400e-01 *D BUFFD1BWP7T 
k\[14\] I *L 0.000e+00 *S 1.324e-01 8.552e-02 *D BUFFD1BWP7T 
k\[13\] I *L 0.000e+00 *S 2.091e-01 1.296e-01 *D BUFFD1BWP7T 
k\[12\] I *L 0.000e+00 *S 1.058e-01 6.895e-02 *D BUFFD1BWP7T 
k\[11\] I *L 0.000e+00 *S 2.026e-01 1.261e-01 *D BUFFD1BWP7T 
k\[10\] I *L 0.000e+00 *S 2.600e-01 1.574e-01 *D BUFFD1BWP7T 
k\[9\] I *L 0.000e+00 *S 2.409e-01 1.469e-01 *D BUFFD1BWP7T 
k\[8\] I *L 0.000e+00 *S 1.605e-01 1.031e-01 *D BUFFD1BWP7T 
k\[7\] I *L 0.000e+00 *S 1.537e-01 9.888e-02 *D BUFFD1BWP7T 
k\[6\] I *L 0.000e+00 *S 2.344e-01 1.434e-01 *D BUFFD1BWP7T 
k\[5\] I *L 0.000e+00 *S 2.170e-01 1.339e-01 *D BUFFD1BWP7T 
k\[4\] I *L 0.000e+00 *S 1.834e-01 1.156e-01 *D BUFFD1BWP7T 
k\[3\] I *L 0.000e+00 *S 2.517e-01 1.529e-01 *D BUFFD1BWP7T 
k\[2\] I *L 0.000e+00 *S 2.517e-01 1.529e-01 *D BUFFD1BWP7T 
k\[1\] I *L 0.000e+00 *S 1.164e-01 7.553e-02 *D BUFFD1BWP7T 
k\[0\] I *L 0.000e+00 *S 9.180e-02 6.017e-02 *D BUFFD1BWP7T 
p\[127\] I *L 0.000e+00 *S 6.502e-02 4.293e-02 *D BUFFD1BWP7T 
p\[126\] I *L 0.000e+00 *S 4.420e-02 2.916e-02 *D BUFFD1BWP7T 
p\[125\] I *L 0.000e+00 *S 6.119e-02 4.040e-02 *D BUFFD1BWP7T 
p\[124\] I *L 0.000e+00 *S 1.164e-01 7.556e-02 *D BUFFD1BWP7T 
p\[123\] I *L 0.000e+00 *S 3.978e-02 2.624e-02 *D BUFFD1BWP7T 
p\[122\] I *L 0.000e+00 *S 4.431e-02 2.924e-02 *D BUFFD1BWP7T 
p\[121\] I *L 0.000e+00 *S 4.216e-02 2.781e-02 *D BUFFD1BWP7T 
p\[120\] I *L 0.000e+00 *S 1.087e-01 7.075e-02 *D BUFFD1BWP7T 
p\[119\] I *L 0.000e+00 *S 6.398e-02 4.224e-02 *D BUFFD1BWP7T 
p\[118\] I *L 0.000e+00 *S 4.628e-02 3.054e-02 *D BUFFD1BWP7T 
p\[117\] I *L 0.000e+00 *S 8.954e-02 5.877e-02 *D BUFFD1BWP7T 
p\[116\] I *L 0.000e+00 *S 7.097e-02 4.687e-02 *D BUFFD1BWP7T 
p\[115\] I *L 0.000e+00 *S 5.672e-02 3.744e-02 *D BUFFD1BWP7T 
p\[114\] I *L 0.000e+00 *S 5.933e-02 3.917e-02 *D BUFFD1BWP7T 
p\[113\] I *L 0.000e+00 *S 1.639e-01 1.049e-01 *D BUFFD1BWP7T 
p\[112\] I *L 0.000e+00 *S 6.347e-02 4.190e-02 *D BUFFD1BWP7T 
p\[111\] I *L 0.000e+00 *S 7.928e-02 5.235e-02 *D BUFFD1BWP7T 
p\[110\] I *L 0.000e+00 *S 7.849e-02 5.184e-02 *D BUFFD1BWP7T 
p\[109\] I *L 0.000e+00 *S 8.697e-02 5.716e-02 *D BUFFD1BWP7T 
p\[108\] I *L 0.000e+00 *S 5.233e-02 3.454e-02 *D BUFFD1BWP7T 
p\[107\] I *L 0.000e+00 *S 3.829e-02 2.525e-02 *D BUFFD1BWP7T 
p\[106\] I *L 0.000e+00 *S 1.473e-01 9.485e-02 *D BUFFD1BWP7T 
p\[105\] I *L 0.000e+00 *S 8.500e-02 5.592e-02 *D BUFFD1BWP7T 
p\[104\] I *L 0.000e+00 *S 9.001e-02 5.906e-02 *D BUFFD1BWP7T 
p\[103\] I *L 0.000e+00 *S 1.237e-01 8.011e-02 *D BUFFD1BWP7T 
p\[102\] I *L 0.000e+00 *S 1.349e-01 8.712e-02 *D BUFFD1BWP7T 
p\[101\] I *L 0.000e+00 *S 1.718e-01 1.092e-01 *D BUFFD1BWP7T 
p\[100\] I *L 0.000e+00 *S 1.733e-01 1.101e-01 *D BUFFD1BWP7T 
p\[99\] I *L 0.000e+00 *S 1.431e-01 9.225e-02 *D BUFFD1BWP7T 
p\[98\] I *L 0.000e+00 *S 1.476e-01 9.505e-02 *D BUFFD1BWP7T 
p\[97\] I *L 0.000e+00 *S 1.184e-01 7.680e-02 *D BUFFD1BWP7T 
p\[96\] I *L 0.000e+00 *S 1.378e-01 8.890e-02 *D BUFFD1BWP7T 
p\[95\] I *L 0.000e+00 *S 8.498e-02 5.592e-02 *D BUFFD1BWP7T 
p\[94\] I *L 0.000e+00 *S 5.751e-02 3.796e-02 *D BUFFD1BWP7T 
p\[93\] I *L 0.000e+00 *S 8.107e-02 5.347e-02 *D BUFFD1BWP7T 
p\[92\] I *L 0.000e+00 *S 1.362e-01 8.792e-02 *D BUFFD1BWP7T 
p\[91\] I *L 0.000e+00 *S 5.993e-02 3.956e-02 *D BUFFD1BWP7T 
p\[90\] I *L 0.000e+00 *S 5.226e-02 3.449e-02 *D BUFFD1BWP7T 
p\[89\] I *L 0.000e+00 *S 5.217e-02 3.443e-02 *D BUFFD1BWP7T 
p\[88\] I *L 0.000e+00 *S 1.171e-01 7.602e-02 *D BUFFD1BWP7T 
p\[87\] I *L 0.000e+00 *S 8.535e-02 5.614e-02 *D BUFFD1BWP7T 
p\[86\] I *L 0.000e+00 *S 7.248e-02 4.786e-02 *D BUFFD1BWP7T 
p\[85\] I *L 0.000e+00 *S 1.061e-01 6.914e-02 *D BUFFD1BWP7T 
p\[84\] I *L 0.000e+00 *S 9.664e-02 6.320e-02 *D BUFFD1BWP7T 
p\[83\] I *L 0.000e+00 *S 7.152e-02 4.723e-02 *D BUFFD1BWP7T 
p\[82\] I *L 0.000e+00 *S 7.725e-02 5.102e-02 *D BUFFD1BWP7T 
p\[81\] I *L 0.000e+00 *S 1.754e-01 1.112e-01 *D BUFFD1BWP7T 
p\[80\] I *L 0.000e+00 *S 8.557e-02 5.628e-02 *D BUFFD1BWP7T 
p\[79\] I *L 0.000e+00 *S 9.317e-02 6.103e-02 *D BUFFD1BWP7T 
p\[78\] I *L 0.000e+00 *S 1.060e-01 6.907e-02 *D BUFFD1BWP7T 
p\[77\] I *L 0.000e+00 *S 1.234e-01 7.992e-02 *D BUFFD1BWP7T 
p\[76\] I *L 0.000e+00 *S 6.355e-02 4.196e-02 *D BUFFD1BWP7T 
p\[75\] I *L 0.000e+00 *S 5.548e-02 3.662e-02 *D BUFFD1BWP7T 
p\[74\] I *L 0.000e+00 *S 1.666e-01 1.064e-01 *D BUFFD1BWP7T 
p\[73\] I *L 0.000e+00 *S 1.051e-01 6.849e-02 *D BUFFD1BWP7T 
p\[72\] I *L 0.000e+00 *S 1.264e-01 8.178e-02 *D BUFFD1BWP7T 
p\[71\] I *L 0.000e+00 *S 1.346e-01 8.695e-02 *D BUFFD1BWP7T 
p\[70\] I *L 0.000e+00 *S 1.325e-01 8.560e-02 *D BUFFD1BWP7T 
p\[69\] I *L 0.000e+00 *S 1.930e-01 1.208e-01 *D BUFFD1BWP7T 
p\[68\] I *L 0.000e+00 *S 1.786e-01 1.130e-01 *D BUFFD1BWP7T 
p\[67\] I *L 0.000e+00 *S 1.645e-01 1.053e-01 *D BUFFD1BWP7T 
p\[66\] I *L 0.000e+00 *S 1.680e-01 1.072e-01 *D BUFFD1BWP7T 
p\[65\] I *L 0.000e+00 *S 1.436e-01 9.254e-02 *D BUFFD1BWP7T 
p\[64\] I *L 0.000e+00 *S 1.447e-01 9.327e-02 *D BUFFD1BWP7T 
p\[63\] I *L 0.000e+00 *S 6.990e-02 4.616e-02 *D BUFFD1BWP7T 
p\[62\] I *L 0.000e+00 *S 4.735e-02 3.125e-02 *D BUFFD1BWP7T 
p\[61\] I *L 0.000e+00 *S 7.530e-02 4.972e-02 *D BUFFD1BWP7T 
p\[60\] I *L 0.000e+00 *S 1.364e-01 8.806e-02 *D BUFFD1BWP7T 
p\[59\] I *L 0.000e+00 *S 3.616e-02 2.385e-02 *D BUFFD1BWP7T 
p\[58\] I *L 0.000e+00 *S 5.785e-02 3.819e-02 *D BUFFD1BWP7T 
p\[57\] I *L 0.000e+00 *S 4.329e-02 2.856e-02 *D BUFFD1BWP7T 
p\[56\] I *L 0.000e+00 *S 8.805e-02 5.783e-02 *D BUFFD1BWP7T 
p\[55\] I *L 0.000e+00 *S 3.315e-02 2.186e-02 *D BUFFD1BWP7T 
p\[54\] I *L 0.000e+00 *S 5.671e-02 3.743e-02 *D BUFFD1BWP7T 
p\[53\] I *L 0.000e+00 *S 8.683e-02 5.707e-02 *D BUFFD1BWP7T 
p\[52\] I *L 0.000e+00 *S 8.561e-02 5.631e-02 *D BUFFD1BWP7T 
p\[51\] I *L 0.000e+00 *S 5.609e-02 3.702e-02 *D BUFFD1BWP7T 
p\[50\] I *L 0.000e+00 *S 6.449e-02 4.258e-02 *D BUFFD1BWP7T 
p\[49\] I *L 0.000e+00 *S 1.433e-01 9.236e-02 *D BUFFD1BWP7T 
p\[48\] I *L 0.000e+00 *S 6.703e-02 4.425e-02 *D BUFFD1BWP7T 
p\[47\] I *L 0.000e+00 *S 1.616e-01 1.037e-01 *D BUFFD1BWP7T 
p\[46\] I *L 0.000e+00 *S 8.180e-02 5.393e-02 *D BUFFD1BWP7T 
p\[45\] I *L 0.000e+00 *S 1.671e-01 1.067e-01 *D BUFFD1BWP7T 
p\[44\] I *L 0.000e+00 *S 6.102e-02 4.028e-02 *D BUFFD1BWP7T 
p\[43\] I *L 0.000e+00 *S 8.363e-02 5.507e-02 *D BUFFD1BWP7T 
p\[42\] I *L 0.000e+00 *S 1.504e-01 9.680e-02 *D BUFFD1BWP7T 
p\[41\] I *L 0.000e+00 *S 1.605e-01 1.031e-01 *D BUFFD1BWP7T 
p\[40\] I *L 0.000e+00 *S 1.036e-01 6.752e-02 *D BUFFD1BWP7T 
p\[39\] I *L 0.000e+00 *S 1.086e-01 7.071e-02 *D BUFFD1BWP7T 
p\[38\] I *L 0.000e+00 *S 1.124e-01 7.303e-02 *D BUFFD1BWP7T 
p\[37\] I *L 0.000e+00 *S 1.355e-01 8.749e-02 *D BUFFD1BWP7T 
p\[36\] I *L 0.000e+00 *S 1.433e-01 9.235e-02 *D BUFFD1BWP7T 
p\[35\] I *L 0.000e+00 *S 1.452e-01 9.357e-02 *D BUFFD1BWP7T 
p\[34\] I *L 0.000e+00 *S 1.341e-01 8.659e-02 *D BUFFD1BWP7T 
p\[33\] I *L 0.000e+00 *S 1.089e-01 7.085e-02 *D BUFFD1BWP7T 
p\[32\] I *L 0.000e+00 *S 1.205e-01 7.814e-02 *D BUFFD1BWP7T 
p\[31\] I *L 0.000e+00 *S 1.081e-01 7.037e-02 *D BUFFD1BWP7T 
p\[30\] I *L 0.000e+00 *S 6.802e-02 4.491e-02 *D BUFFD1BWP7T 
p\[29\] I *L 0.000e+00 *S 1.083e-01 7.050e-02 *D BUFFD1BWP7T 
p\[28\] I *L 0.000e+00 *S 1.229e-01 7.963e-02 *D BUFFD1BWP7T 
p\[27\] I *L 0.000e+00 *S 6.977e-02 4.607e-02 *D BUFFD1BWP7T 
p\[26\] I *L 0.000e+00 *S 8.171e-02 5.387e-02 *D BUFFD1BWP7T 
p\[25\] I *L 0.000e+00 *S 6.679e-02 4.410e-02 *D BUFFD1BWP7T 
p\[24\] I *L 0.000e+00 *S 1.118e-01 7.267e-02 *D BUFFD1BWP7T 
p\[23\] I *L 0.000e+00 *S 4.270e-02 2.817e-02 *D BUFFD1BWP7T 
p\[22\] I *L 0.000e+00 *S 8.887e-02 5.835e-02 *D BUFFD1BWP7T 
p\[21\] I *L 0.000e+00 *S 1.139e-01 7.399e-02 *D BUFFD1BWP7T 
p\[20\] I *L 0.000e+00 *S 6.765e-02 4.467e-02 *D BUFFD1BWP7T 
p\[19\] I *L 0.000e+00 *S 7.956e-02 5.253e-02 *D BUFFD1BWP7T 
p\[18\] I *L 0.000e+00 *S 1.222e-01 7.921e-02 *D BUFFD1BWP7T 
p\[17\] I *L 0.000e+00 *S 2.027e-01 1.261e-01 *D BUFFD1BWP7T 
p\[16\] I *L 0.000e+00 *S 9.677e-02 6.328e-02 *D BUFFD1BWP7T 
p\[15\] I *L 0.000e+00 *S 2.035e-01 1.265e-01 *D BUFFD1BWP7T 
p\[14\] I *L 0.000e+00 *S 1.031e-01 6.721e-02 *D BUFFD1BWP7T 
p\[13\] I *L 0.000e+00 *S 1.618e-01 1.038e-01 *D BUFFD1BWP7T 
p\[12\] I *L 0.000e+00 *S 5.007e-02 3.304e-02 *D BUFFD1BWP7T 
p\[11\] I *L 0.000e+00 *S 1.274e-01 8.242e-02 *D BUFFD1BWP7T 
p\[10\] I *L 0.000e+00 *S 1.639e-01 1.049e-01 *D BUFFD1BWP7T 
p\[9\] I *L 0.000e+00 *S 1.959e-01 1.224e-01 *D BUFFD1BWP7T 
p\[8\] I *L 0.000e+00 *S 1.295e-01 8.374e-02 *D BUFFD1BWP7T 
p\[7\] I *L 0.000e+00 *S 1.189e-01 7.713e-02 *D BUFFD1BWP7T 
p\[6\] I *L 0.000e+00 *S 1.150e-01 7.465e-02 *D BUFFD1BWP7T 
p\[5\] I *L 0.000e+00 *S 1.473e-01 9.485e-02 *D BUFFD1BWP7T 
p\[4\] I *L 0.000e+00 *S 1.677e-01 1.070e-01 *D BUFFD1BWP7T 
p\[3\] I *L 0.000e+00 *S 1.677e-01 1.070e-01 *D BUFFD1BWP7T 
p\[2\] I *L 0.000e+00 *S 1.996e-01 1.244e-01 *D BUFFD1BWP7T 
p\[1\] I *L 0.000e+00 *S 1.098e-01 7.143e-02 *D BUFFD1BWP7T 
p\[0\] I *L 0.000e+00 *S 1.217e-01 7.884e-02 *D BUFFD1BWP7T 
start I *L 0.000e+00 *S 2.317e-01 1.419e-01 *D BUFFD1BWP7T 

*R_NET c\[127\] 1.156e-01
*DRIVER U1744:ZN
*CELL NR2D1BWP7T
*C2_R1_C1 5.781e-02 4.633e-02 5.781e-02 
*LOADS
*RC c\[127\] 4.977e-03
*END

*R_NET c\[126\] 1.047e-01
*DRIVER U1709:ZN
*CELL NR2D1BWP7T
*C2_R1_C1 5.237e-02 2.756e-02 5.237e-02 
*LOADS
*RC c\[126\] 2.861e-03
*END

*R_NET c\[125\] 1.038e-01
*DRIVER U1723:ZN
*CELL NR2D1BWP7T
*C2_R1_C1 5.189e-02 2.588e-02 5.189e-02 
*LOADS
*RC c\[125\] 2.678e-03
*END

*R_NET c\[124\] 1.288e-01
*DRIVER U1725:ZN
*CELL NR2D1BWP7T
*C2_R1_C1 6.440e-02 6.903e-02 6.440e-02 
*LOADS
*RC c\[124\] 7.720e-03
*END

*R_NET c\[123\] 1.038e-01
*DRIVER U1729:ZN
*CELL NR2D1BWP7T
*C2_R1_C1 5.191e-02 2.598e-02 5.191e-02 
*LOADS
*RC c\[123\] 2.689e-03
*END

*R_NET c\[122\] 1.038e-01
*DRIVER U1707:ZN
*CELL NR2D1BWP7T
*C2_R1_C1 5.192e-02 2.601e-02 5.192e-02 
*LOADS
*RC c\[122\] 2.693e-03
*END

*R_NET c\[121\] 1.038e-01
*DRIVER U1727:ZN
*CELL NR2D1BWP7T
*C2_R1_C1 5.188e-02 2.585e-02 5.188e-02 
*LOADS
*RC c\[121\] 2.675e-03
*END

*R_NET c\[118\] 1.037e-01
*DRIVER U1719:ZN
*CELL NR2D1BWP7T
*C2_R1_C1 5.184e-02 2.572e-02 5.184e-02 
*LOADS
*RC c\[118\] 2.661e-03
*END

*R_NET c\[117\] 1.199e-01
*DRIVER U1732:ZN
*CELL INR2D1BWP7T
*C2_R1_C1 5.993e-02 5.620e-02 5.993e-02 
*LOADS
*RC c\[117\] 6.117e-03
*END

*R_NET c\[115\] 1.040e-01
*DRIVER U1711:ZN
*CELL NR2D1BWP7T
*C2_R1_C1 5.202e-02 2.639e-02 5.202e-02 
*LOADS
*RC c\[115\] 2.734e-03
*END

*R_NET c\[114\] 1.171e-01
*DRIVER U1731:ZN
*CELL INR2D1BWP7T
*C2_R1_C1 5.856e-02 5.103e-02 5.856e-02 
*LOADS
*RC c\[114\] 5.508e-03
*END

*R_NET c\[113\] 1.155e-01
*DRIVER U1713:ZN
*CELL NR2D1BWP7T
*C2_R1_C1 5.775e-02 4.612e-02 5.775e-02 
*LOADS
*RC c\[113\] 4.953e-03
*END

*R_NET c\[111\] 1.083e-01
*DRIVER U1784:ZN
*CELL NR2D1BWP7T
*C2_R1_C1 5.417e-02 3.377e-02 5.417e-02 
*LOADS
*RC c\[111\] 3.546e-03
*END

*R_NET c\[110\] 1.048e-01
*DRIVER U1730:ZN
*CELL INR2D1BWP7T
*C2_R1_C1 5.241e-02 2.834e-02 5.241e-02 
*LOADS
*RC c\[110\] 2.943e-03
*END

*R_NET c\[109\] 1.071e-01
*DRIVER U1804:ZN
*CELL INR2D1BWP7T
*C2_R1_C1 5.355e-02 3.161e-02 5.355e-02 
*LOADS
*RC c\[109\] 3.307e-03
*END

*R_NET c\[107\] 1.038e-01
*DRIVER U1814:ZN
*CELL INR2D1BWP7T
*C2_R1_C1 5.191e-02 2.598e-02 5.191e-02 
*LOADS
*RC c\[107\] 2.689e-03
*END

*R_NET c\[106\] 1.620e-01
*DRIVER U1806:ZN
*CELL INR2D1BWP7T
*C2_R1_C1 8.098e-02 1.357e-01 8.098e-02 
*LOADS
*RC c\[106\] 1.668e-02
*END

*R_NET c\[105\] 1.069e-01
*DRIVER U1805:ZN
*CELL INR2D1BWP7T
*C2_R1_C1 5.343e-02 3.122e-02 5.343e-02 
*LOADS
*RC c\[105\] 3.264e-03
*END

*R_NET c\[104\] 1.128e-01
*DRIVER U1809:ZN
*CELL INR2D1BWP7T
*C2_R1_C1 5.641e-02 4.649e-02 5.641e-02 
*LOADS
*RC c\[104\] 4.951e-03
*END

*R_NET c\[103\] 1.285e-01
*DRIVER U1748:ZN
*CELL NR2D1BWP7T
*C2_R1_C1 6.425e-02 6.851e-02 6.425e-02 
*LOADS
*RC c\[103\] 7.654e-03
*END

*R_NET c\[102\] 1.264e-01
*DRIVER U1807:ZN
*CELL INR2D1BWP7T
*C2_R1_C1 6.321e-02 6.861e-02 6.321e-02 
*LOADS
*RC c\[102\] 7.618e-03
*END

*R_NET c\[101\] 1.274e-01
*DRIVER U1812:ZN
*CELL INR2D1BWP7T
*C2_R1_C1 6.370e-02 7.269e-02 6.370e-02 
*LOADS
*RC c\[101\] 8.095e-03
*END

*R_NET c\[100\] 1.370e-01
*DRIVER U1815:ZN
*CELL INR2D1BWP7T
*C2_R1_C1 6.850e-02 8.856e-02 6.850e-02 
*LOADS
*RC c\[100\] 1.014e-02
*END

*R_NET c\[99\] 1.542e-01
*DRIVER U1808:ZN
*CELL INR2D1BWP7T
*C2_R1_C1 7.709e-02 1.257e-01 7.709e-02 
*LOADS
*RC c\[99\] 1.512e-02
*END

*R_NET c\[98\] 1.515e-01
*DRIVER U1813:ZN
*CELL INR2D1BWP7T
*C2_R1_C1 7.575e-02 1.202e-01 7.575e-02 
*LOADS
*RC c\[98\] 1.435e-02
*END

*R_NET c\[96\] 1.290e-01
*DRIVER U1737:ZN
*CELL NR2D1BWP7T
*C2_R1_C1 6.452e-02 6.945e-02 6.452e-02 
*LOADS
*RC c\[96\] 7.772e-03
*END

*R_NET n2754 5.110e-03
*DRIVER U1613:ZN
*CELL AOI221D1BWP7T
*C2_R1_C1 2.555e-03 2.933e-02 2.555e-03 
*LOADS
*RC U3236:I 1.073e-04
*END

*R_NET n2755 5.384e-03
*DRIVER U1601:ZN
*CELL AOI221D1BWP7T
*C2_R1_C1 2.692e-03 3.032e-02 2.692e-03 
*LOADS
*RC U3245:I 1.137e-04
*END

*R_NET n2757 7.003e-03
*DRIVER U1622:ZN
*CELL AOI221D1BWP7T
*C2_R1_C1 3.502e-03 3.338e-02 3.502e-03 
*LOADS
*RC U3234:I 1.432e-04
*END

*R_NET n2758 5.960e-03
*DRIVER U1667:ZN
*CELL AOI221D1BWP7T
*C2_R1_C1 2.980e-03 3.133e-02 2.980e-03 
*LOADS
*RC U3233:I 1.235e-04
*END

*R_NET c\[62\] 1.067e-01
*DRIVER U1746:ZN
*CELL NR2D1BWP7T
*C2_R1_C1 5.334e-02 3.092e-02 5.334e-02 
*LOADS
*RC c\[62\] 3.229e-03
*END

*R_NET c\[61\] 1.038e-01
*DRIVER U1739:ZN
*CELL NR2D1BWP7T
*C2_R1_C1 5.189e-02 2.594e-02 5.189e-02 
*LOADS
*RC c\[61\] 2.685e-03
*END

*R_NET c\[60\] 1.269e-01
*DRIVER U1750:ZN
*CELL NR2D1BWP7T
*C2_R1_C1 6.345e-02 6.574e-02 6.345e-02 
*LOADS
*RC c\[60\] 7.309e-03
*END

*R_NET c\[59\] 1.040e-01
*DRIVER U1752:ZN
*CELL NR2D1BWP7T
*C2_R1_C1 5.200e-02 2.632e-02 5.200e-02 
*LOADS
*RC c\[59\] 2.725e-03
*END

*R_NET c\[58\] 1.037e-01
*DRIVER U1754:ZN
*CELL NR2D1BWP7T
*C2_R1_C1 5.185e-02 2.579e-02 5.185e-02 
*LOADS
*RC c\[58\] 2.668e-03
*END

*R_NET c\[57\] 1.036e-01
*DRIVER U1756:ZN
*CELL NR2D1BWP7T
*C2_R1_C1 5.181e-02 2.563e-02 5.181e-02 
*LOADS
*RC c\[57\] 2.651e-03
*END

*R_NET c\[54\] 1.038e-01
*DRIVER U1762:ZN
*CELL NR2D1BWP7T
*C2_R1_C1 5.189e-02 2.591e-02 5.189e-02 
*LOADS
*RC c\[54\] 2.682e-03
*END

*R_NET c\[53\] 1.215e-01
*DRIVER U1780:ZN
*CELL NR2D1BWP7T
*C2_R1_C1 6.077e-02 6.236e-02 6.077e-02 
*LOADS
*RC c\[53\] 6.822e-03
*END

*R_NET c\[52\] 1.037e-01
*DRIVER U1764:ZN
*CELL NR2D1BWP7T
*C2_R1_C1 5.183e-02 2.569e-02 5.183e-02 
*LOADS
*RC c\[52\] 2.658e-03
*END

*R_NET c\[51\] 1.042e-01
*DRIVER U1766:ZN
*CELL NR2D1BWP7T
*C2_R1_C1 5.212e-02 2.671e-02 5.212e-02 
*LOADS
*RC c\[51\] 2.768e-03
*END

*R_NET c\[50\] 1.036e-01
*DRIVER U1768:ZN
*CELL NR2D1BWP7T
*C2_R1_C1 5.181e-02 2.563e-02 5.181e-02 
*LOADS
*RC c\[50\] 2.652e-03
*END

*R_NET c\[49\] 1.240e-01
*DRIVER U1770:ZN
*CELL NR2D1BWP7T
*C2_R1_C1 6.201e-02 6.081e-02 6.201e-02 
*LOADS
*RC c\[49\] 6.704e-03
*END

*R_NET c\[47\] 1.037e-01
*DRIVER U1794:ZN
*CELL NR2D1BWP7T
*C2_R1_C1 5.185e-02 2.577e-02 5.185e-02 
*LOADS
*RC c\[47\] 2.666e-03
*END

*R_NET c\[45\] 1.224e-01
*DRIVER U1774:ZN
*CELL NR2D1BWP7T
*C2_R1_C1 6.120e-02 5.800e-02 6.120e-02 
*LOADS
*RC c\[45\] 6.362e-03
*END

*R_NET c\[44\] 1.036e-01
*DRIVER U1776:ZN
*CELL NR2D1BWP7T
*C2_R1_C1 5.181e-02 2.563e-02 5.181e-02 
*LOADS
*RC c\[44\] 2.652e-03
*END

*R_NET c\[43\] 1.070e-01
*DRIVER U1800:ZN
*CELL INR2D1BWP7T
*C2_R1_C1 5.349e-02 3.144e-02 5.349e-02 
*LOADS
*RC c\[43\] 3.287e-03
*END

*R_NET c\[42\] 1.159e-01
*DRIVER U1778:ZN
*CELL NR2D1BWP7T
*C2_R1_C1 5.795e-02 4.682e-02 5.795e-02 
*LOADS
*RC c\[42\] 5.034e-03
*END

*R_NET c\[41\] 1.162e-01
*DRIVER U1788:ZN
*CELL NR2D1BWP7T
*C2_R1_C1 5.809e-02 5.159e-02 5.809e-02 
*LOADS
*RC c\[41\] 5.552e-03
*END

*R_NET c\[40\] 1.120e-01
*DRIVER U1790:ZN
*CELL NR2D1BWP7T
*C2_R1_C1 5.601e-02 4.485e-02 5.601e-02 
*LOADS
*RC c\[40\] 4.765e-03
*END

*R_NET c\[39\] 1.216e-01
*DRIVER U1798:ZN
*CELL INR2D1BWP7T
*C2_R1_C1 6.078e-02 5.985e-02 6.078e-02 
*LOADS
*RC c\[39\] 6.548e-03
*END

*R_NET c\[38\] 1.261e-01
*DRIVER U1795:ZN
*CELL INR2D1BWP7T
*C2_R1_C1 6.306e-02 6.973e-02 6.306e-02 
*LOADS
*RC c\[38\] 7.735e-03
*END

*R_NET c\[37\] 1.308e-01
*DRIVER U1802:ZN
*CELL INR2D1BWP7T
*C2_R1_C1 6.542e-02 7.979e-02 6.542e-02 
*LOADS
*RC c\[37\] 8.978e-03
*END

*R_NET c\[36\] 1.293e-01
*DRIVER U1797:ZN
*CELL INR2D1BWP7T
*C2_R1_C1 6.463e-02 8.450e-02 6.463e-02 
*LOADS
*RC c\[36\] 9.463e-03
*END

*R_NET c\[35\] 1.509e-01
*DRIVER U1796:ZN
*CELL INR2D1BWP7T
*C2_R1_C1 7.545e-02 1.307e-01 7.545e-02 
*LOADS
*RC c\[35\] 1.558e-02
*END

*R_NET c\[34\] 1.503e-01
*DRIVER U1799:ZN
*CELL INR2D1BWP7T
*C2_R1_C1 7.513e-02 1.288e-01 7.513e-02 
*LOADS
*RC c\[34\] 1.533e-02
*END

*R_NET c\[32\] 1.151e-01